3000|Compound_1814|Compounds_3D_F|sdf|535|dock5|1
     RDKit          3D

 17 19  0  0  0  0  0  0  0  0999 V2000
   -7.9599  -15.5706   11.2522 N   0  0  0  0  0  0  0  0  0  0  0  0
   -6.9770  -15.1768   12.0865 C   0  0  0  0  0  0  0  0  0  0  0  0
   -6.3919  -15.9971   12.7656 O   0  0  0  0  0  0  0  0  0  0  0  0
   -6.6127  -13.7513   12.1741 C   0  0  0  0  0  0  0  0  0  0  0  0
   -5.4298  -13.2455   12.6183 C   0  0  0  0  0  0  0  0  0  0  0  0
   -5.5185  -11.9084   12.5311 O   0  0  0  0  0  0  0  0  0  0  0  0
   -6.7291  -11.6001   12.0441 C   0  0  0  0  0  0  0  0  0  0  0  0
   -7.3933  -12.6940   11.8211 N   0  0  0  0  0  0  0  0  0  0  0  0
   -8.3068  -16.9116   11.1728 C   0  0  0  0  0  0  0  0  0  0  0  0
   -7.4625  -17.8033   10.6633 N   0  0  0  0  0  0  0  0  0  0  0  0
   -7.7845  -19.0827   10.5843 C   0  0  0  0  0  0  0  0  0  0  0  0
   -8.9409  -19.5494   10.9991 N   0  0  0  0  0  0  0  0  0  0  0  0
   -9.8520  -18.7287   11.5256 C   0  0  0  0  0  0  0  0  0  0  0  0
   -9.5494  -17.3581   11.6329 C   0  0  0  0  0  0  0  0  0  0  0  0
  -10.6554  -16.7848   12.2002 N   0  0  0  0  0  0  0  0  0  0  0  0
  -11.5255  -17.7125   12.4083 N   0  0  0  0  0  0  0  0  0  0  0  0
  -11.0905  -18.8644   12.0307 N   0  0  0  0  0  0  0  0  0  0  0  0
  1  2  1  0
  1  9  1  0
  2  3  2  0
  2  4  1  0
  4  5  2  0
  4  8  1  0
  5  6  1  0
  6  7  1  0
  7  8  2  0
  9 10  2  0
  9 14  1  0
 10 11  1  0
 11 12  2  0
 12 13  1  0
 13 14  2  0
 13 17  1  0
 14 15  1  0
 15 16  1  0
 16 17  2  0
M  END
>  <Gold.Gold.Protein.RotatedWaterAtoms>  (1) 


>  <Gold.Id.Protein>  (1) 


>  <Gold.PLP.Chemscore.CHOScore>  (1) 
1.0000

>  <Gold.PLP.Chemscore.Hbond>  (1) 
1.0640

>  <Gold.PLP.Chemscore.Internal.Correction>  (1) 
0.2950

>  <Gold.PLP.Chemscore.Metal>  (1) 
0.0000

>  <Gold.PLP.Fitness>  (1) 
39.8053

>  <Gold.PLP.PLP>  (1) 
-35.0057

>  <Gold.PLP.ligand.clash>  (1) 
0.0000

>  <Gold.PLP.ligand.torsion>  (1) 
0.8437

>  <Gold.PLP.part.buried>  (1) 
-9.4611

>  <Gold.PLP.part.hbond>  (1) 
-2.4436

>  <Gold.PLP.part.metal>  (1) 
0.0000

>  <Gold.PLP.part.nonpolar>  (1) 
-23.2987

>  <Gold.PLP.part.repulsive>  (1) 
0.8568

>  <Gold.Protein.RotatedAtoms>  (1) 


>  <Gold.Protein.RotatedTorsions>  (1) 


>  <Gold.Protein.RotatedWaterAtoms>  (1) 


>  <Gold.Version>  (1) 
5.3.0

>  <PLP.Chemscore.CHOScore>  (1) 


>  <PLP.Chemscore.Hbond>  (1) 


>  <PLP.Chemscore.Internal.Correction>  (1) 


>  <PLP.Chemscore.Metal>  (1) 


>  <PLP.Fitness>  (1) 


>  <PLP.PLP>  (1) 


>  <PLP.ligand.clash>  (1) 


>  <PLP.ligand.torsion>  (1) 


>  <PLP.part.buried>  (1) 


>  <PLP.part.hbond>  (1) 


>  <PLP.part.metal>  (1) 


>  <PLP.part.nonpolar>  (1) 


>  <PLP.part.repulsive>  (1) 


>  <Version>  (1) 


$$$$
3001|Compound_1814|Compounds_3D_F|sdf|535|dock6|1
     RDKit          3D

 17 19  0  0  0  0  0  0  0  0999 V2000
   -7.8699  -15.0131   11.4903 N   0  0  0  0  0  0  0  0  0  0  0  0
   -6.6800  -14.4980   11.8589 C   0  0  0  0  0  0  0  0  0  0  0  0
   -5.7292  -15.2332   12.0379 O   0  0  0  0  0  0  0  0  0  0  0  0
   -6.5332  -13.0431   12.0444 C   0  0  0  0  0  0  0  0  0  0  0  0
   -5.4189  -12.3922   12.4768 C   0  0  0  0  0  0  0  0  0  0  0  0
   -5.7150  -11.0826   12.5003 O   0  0  0  0  0  0  0  0  0  0  0  0
   -6.9831  -10.9328   12.0914 C   0  0  0  0  0  0  0  0  0  0  0  0
   -7.4839  -12.0980   11.8104 N   0  0  0  0  0  0  0  0  0  0  0  0
   -8.0103  -16.3829   11.3204 C   0  0  0  0  0  0  0  0  0  0  0  0
   -7.0019  -17.1180   10.8618 N   0  0  0  0  0  0  0  0  0  0  0  0
   -7.1267  -18.4235   10.6974 C   0  0  0  0  0  0  0  0  0  0  0  0
   -8.2372  -19.0696   10.9735 N   0  0  0  0  0  0  0  0  0  0  0  0
   -9.3029  -18.4150   11.4392 C   0  0  0  0  0  0  0  0  0  0  0  0
   -9.2130  -17.0236   11.6337 C   0  0  0  0  0  0  0  0  0  0  0  0
  -10.4386  -16.6431   12.1098 N   0  0  0  0  0  0  0  0  0  0  0  0
  -11.1811  -17.6935   12.1901 N   0  0  0  0  0  0  0  0  0  0  0  0
  -10.5506  -18.7504   11.8106 N   0  0  0  0  0  0  0  0  0  0  0  0
  1  2  1  0
  1  9  1  0
  2  3  2  0
  2  4  1  0
  4  5  2  0
  4  8  1  0
  5  6  1  0
  6  7  1  0
  7  8  2  0
  9 10  2  0
  9 14  1  0
 10 11  1  0
 11 12  2  0
 12 13  1  0
 13 14  2  0
 13 17  1  0
 14 15  1  0
 15 16  1  0
 16 17  2  0
M  END
>  <Gold.Gold.Protein.RotatedWaterAtoms>  (2) 


>  <Gold.Id.Protein>  (2) 


>  <Gold.PLP.Chemscore.CHOScore>  (2) 
0.9925

>  <Gold.PLP.Chemscore.Hbond>  (2) 
1.0960

>  <Gold.PLP.Chemscore.Internal.Correction>  (2) 
0.2950

>  <Gold.PLP.Chemscore.Metal>  (2) 
0.0000

>  <Gold.PLP.Fitness>  (2) 
40.5256

>  <Gold.PLP.PLP>  (2) 
-34.4442

>  <Gold.PLP.ligand.clash>  (2) 
0.0000

>  <Gold.PLP.ligand.torsion>  (2) 
0.2395

>  <Gold.PLP.part.buried>  (2) 
-10.2361

>  <Gold.PLP.part.hbond>  (2) 
-2.3245

>  <Gold.PLP.part.metal>  (2) 
0.0000

>  <Gold.PLP.part.nonpolar>  (2) 
-23.7978

>  <Gold.PLP.part.repulsive>  (2) 
0.8913

>  <Gold.Protein.RotatedAtoms>  (2) 


>  <Gold.Protein.RotatedTorsions>  (2) 


>  <Gold.Protein.RotatedWaterAtoms>  (2) 


>  <Gold.Version>  (2) 
5.3.0

>  <PLP.Chemscore.CHOScore>  (2) 


>  <PLP.Chemscore.Hbond>  (2) 


>  <PLP.Chemscore.Internal.Correction>  (2) 


>  <PLP.Chemscore.Metal>  (2) 


>  <PLP.Fitness>  (2) 


>  <PLP.PLP>  (2) 


>  <PLP.ligand.clash>  (2) 


>  <PLP.ligand.torsion>  (2) 


>  <PLP.part.buried>  (2) 


>  <PLP.part.hbond>  (2) 


>  <PLP.part.metal>  (2) 


>  <PLP.part.nonpolar>  (2) 


>  <PLP.part.repulsive>  (2) 


>  <Version>  (2) 


$$$$
3002|Compound_1816|Compounds_3D_F|sdf|536|dock1|1
     RDKit          3D

 29 33  0  0  0  0  0  0  0  0999 V2000
  -15.4667  -21.9159    7.5605 O   0  0  0  0  0  0  0  0  0  0  0  0
  -14.3500  -21.0265    7.5035 C   0  0  0  0  0  0  0  0  0  0  0  0
  -13.2902  -21.4726    8.5121 C   0  0  0  0  0  0  0  0  0  0  0  0
  -12.1191  -20.6313    8.4254 O   0  0  0  0  0  0  0  0  0  0  0  0
  -11.4206  -20.7538    9.6756 C   0  0  0  0  0  0  0  0  0  0  0  0
  -10.7827  -19.4803   10.0162 N   0  0  0  0  0  0  0  0  0  0  0  0
  -11.4197  -18.3029   10.2720 C   0  0  0  0  0  0  0  0  0  0  0  0
  -10.5470  -17.3753   10.5408 N   0  0  0  0  0  0  0  0  0  0  0  0
   -9.2992  -17.8962   10.4755 C   0  0  0  0  0  0  0  0  0  0  0  0
   -9.4354  -19.2551   10.1429 C   0  0  0  0  0  0  0  0  0  0  0  0
   -8.3435  -20.0017   10.0164 N   0  0  0  0  0  0  0  0  0  0  0  0
   -7.1487  -19.4790   10.1981 C   0  0  0  0  0  0  0  0  0  0  0  0
   -6.9714  -18.2079   10.5101 N   0  0  0  0  0  0  0  0  0  0  0  0
   -8.0039  -17.3863   10.6629 C   0  0  0  0  0  0  0  0  0  0  0  0
   -7.8071  -16.0526   10.9913 N   0  0  0  0  0  0  0  0  0  0  0  0
   -6.7207  -15.6851   11.7000 C   0  0  0  0  0  0  0  0  0  0  0  0
   -5.9130  -16.5239   12.0517 O   0  0  0  0  0  0  0  0  0  0  0  0
   -6.5119  -14.2692   12.0486 C   0  0  0  0  0  0  0  0  0  0  0  0
   -7.3924  -13.2497   11.8523 C   0  0  0  0  0  0  0  0  0  0  0  0
   -6.8063  -12.1323   12.3107 O   0  0  0  0  0  0  0  0  0  0  0  0
   -5.5929  -12.4577   12.7798 C   0  0  0  0  0  0  0  0  0  0  0  0
   -5.4056  -13.7352   12.6325 N   0  0  0  0  0  0  0  0  0  0  0  0
  -12.4619  -21.1272   10.7510 C   0  0  0  0  0  0  0  0  0  0  0  0
  -12.1302  -22.4446   11.2519 O   0  0  0  0  0  0  0  0  0  0  0  0
  -13.6014  -23.0618   11.5934 P   0  0  0  0  0  0  0  0  0  0  0  0
  -14.0900  -22.5915   12.9821 O   0  0  0  0  0  0  0  0  0  0  0  0
  -13.5888  -24.6045   11.5060 O   0  0  0  0  0  0  0  0  0  0  0  0
  -14.5068  -22.4163   10.4064 O   0  0  0  0  0  0  0  0  0  0  0  0
  -13.7896  -21.2549    9.9604 C   0  0  0  0  0  0  0  0  0  0  0  0
  1  2  1  0
  2  3  1  0
  3  4  1  0
  3 29  1  0
  4  5  1  0
  5  6  1  0
  5 23  1  0
  6  7  1  0
  6 10  1  0
  7  8  2  0
  8  9  1  0
  9 10  2  0
  9 14  1  0
 10 11  1  0
 11 12  2  0
 12 13  1  0
 13 14  2  0
 14 15  1  0
 15 16  1  0
 16 17  2  0
 16 18  1  0
 18 19  2  0
 18 22  1  0
 19 20  1  0
 20 21  1  0
 21 22  2  0
 23 24  1  0
 23 29  1  0
 24 25  1  0
 25 26  2  0
 25 27  1  0
 25 28  1  0
 28 29  1  0
M  CHG  1  27  -1
M  END
>  <Gold.Gold.Protein.RotatedWaterAtoms>  (3) 


>  <Gold.Id.Protein>  (3) 


>  <Gold.PLP.Chemscore.CHOScore>  (3) 
1.0376

>  <Gold.PLP.Chemscore.Hbond>  (3) 
5.2880

>  <Gold.PLP.Chemscore.Internal.Correction>  (3) 
0.3340

>  <Gold.PLP.Chemscore.Metal>  (3) 
0.0000

>  <Gold.PLP.Fitness>  (3) 
57.6568

>  <Gold.PLP.PLP>  (3) 
-38.8566

>  <Gold.PLP.ligand.clash>  (3) 
0.0000

>  <Gold.PLP.ligand.torsion>  (3) 
0.2553

>  <Gold.PLP.part.buried>  (3) 
-2.4656

>  <Gold.PLP.part.hbond>  (3) 
-5.3501

>  <Gold.PLP.part.metal>  (3) 
0.0000

>  <Gold.PLP.part.nonpolar>  (3) 
-31.9985

>  <Gold.PLP.part.repulsive>  (3) 
0.6342

>  <Gold.Protein.RotatedAtoms>  (3) 


>  <Gold.Protein.RotatedTorsions>  (3) 


>  <Gold.Protein.RotatedWaterAtoms>  (3) 


>  <Gold.Version>  (3) 
5.3.0

>  <PLP.Chemscore.CHOScore>  (3) 


>  <PLP.Chemscore.Hbond>  (3) 


>  <PLP.Chemscore.Internal.Correction>  (3) 


>  <PLP.Chemscore.Metal>  (3) 


>  <PLP.Fitness>  (3) 


>  <PLP.PLP>  (3) 


>  <PLP.ligand.clash>  (3) 


>  <PLP.ligand.torsion>  (3) 


>  <PLP.part.buried>  (3) 


>  <PLP.part.hbond>  (3) 


>  <PLP.part.metal>  (3) 


>  <PLP.part.nonpolar>  (3) 


>  <PLP.part.repulsive>  (3) 


>  <Version>  (3) 


$$$$
3003|Compound_1816|Compounds_3D_F|sdf|536|dock2|1
     RDKit          3D

 29 33  0  0  0  0  0  0  0  0999 V2000
  -15.5995  -21.8678    7.7201 O   0  0  0  0  0  0  0  0  0  0  0  0
  -14.4909  -20.9716    7.6258 C   0  0  0  0  0  0  0  0  0  0  0  0
  -13.3887  -21.4201    8.5869 C   0  0  0  0  0  0  0  0  0  0  0  0
  -12.2368  -20.5551    8.4795 O   0  0  0  0  0  0  0  0  0  0  0  0
  -11.4932  -20.6924    9.7018 C   0  0  0  0  0  0  0  0  0  0  0  0
  -10.8670  -19.4151   10.0497 N   0  0  0  0  0  0  0  0  0  0  0  0
  -11.5143  -18.2759   10.4246 C   0  0  0  0  0  0  0  0  0  0  0  0
  -10.6502  -17.3316   10.6611 N   0  0  0  0  0  0  0  0  0  0  0  0
   -9.3981  -17.8029   10.4545 C   0  0  0  0  0  0  0  0  0  0  0  0
   -9.5215  -19.1475   10.0644 C   0  0  0  0  0  0  0  0  0  0  0  0
   -8.4230  -19.8466    9.7992 N   0  0  0  0  0  0  0  0  0  0  0  0
   -7.2337  -19.2905    9.8984 C   0  0  0  0  0  0  0  0  0  0  0  0
   -7.0685  -18.0309   10.2597 N   0  0  0  0  0  0  0  0  0  0  0  0
   -8.1078  -17.2560   10.5494 C   0  0  0  0  0  0  0  0  0  0  0  0
   -7.9235  -15.9341   10.9287 N   0  0  0  0  0  0  0  0  0  0  0  0
   -6.8167  -15.5750   11.6094 C   0  0  0  0  0  0  0  0  0  0  0  0
   -5.9793  -16.4111   11.8914 O   0  0  0  0  0  0  0  0  0  0  0  0
   -6.6212  -14.1715   12.0119 C   0  0  0  0  0  0  0  0  0  0  0  0
   -5.4936  -13.6354   12.5544 C   0  0  0  0  0  0  0  0  0  0  0  0
   -5.7427  -12.3337   12.7683 O   0  0  0  0  0  0  0  0  0  0  0  0
   -6.9951  -12.0748   12.3650 C   0  0  0  0  0  0  0  0  0  0  0  0
   -7.5311  -13.1661   11.9061 N   0  0  0  0  0  0  0  0  0  0  0  0
  -12.4895  -21.1094   10.8034 C   0  0  0  0  0  0  0  0  0  0  0  0
  -12.1169  -22.4312   11.2621 O   0  0  0  0  0  0  0  0  0  0  0  0
  -13.5639  -23.0836   11.6396 P   0  0  0  0  0  0  0  0  0  0  0  0
  -14.0124  -22.6539   13.0547 O   0  0  0  0  0  0  0  0  0  0  0  0
  -13.5264  -24.6235   11.5163 O   0  0  0  0  0  0  0  0  0  0  0  0
  -14.5215  -22.4289   10.4996 O   0  0  0  0  0  0  0  0  0  0  0  0
  -13.8413  -21.2444   10.0561 C   0  0  0  0  0  0  0  0  0  0  0  0
  1  2  1  0
  2  3  1  0
  3  4  1  0
  3 29  1  0
  4  5  1  0
  5  6  1  0
  5 23  1  0
  6  7  1  0
  6 10  1  0
  7  8  2  0
  8  9  1  0
  9 10  2  0
  9 14  1  0
 10 11  1  0
 11 12  2  0
 12 13  1  0
 13 14  2  0
 14 15  1  0
 15 16  1  0
 16 17  2  0
 16 18  1  0
 18 19  2  0
 18 22  1  0
 19 20  1  0
 20 21  1  0
 21 22  2  0
 23 24  1  0
 23 29  1  0
 24 25  1  0
 25 26  2  0
 25 27  1  0
 25 28  1  0
 28 29  1  0
M  CHG  1  27  -1
M  END
>  <Gold.Gold.Protein.RotatedWaterAtoms>  (4) 


>  <Gold.Id.Protein>  (4) 


>  <Gold.PLP.Chemscore.CHOScore>  (4) 
0.9305

>  <Gold.PLP.Chemscore.Hbond>  (4) 
5.3120

>  <Gold.PLP.Chemscore.Internal.Correction>  (4) 
0.3340

>  <Gold.PLP.Chemscore.Metal>  (4) 
0.0000

>  <Gold.PLP.Fitness>  (4) 
57.4316

>  <Gold.PLP.PLP>  (4) 
-39.1314

>  <Gold.PLP.ligand.clash>  (4) 
0.0000

>  <Gold.PLP.ligand.torsion>  (4) 
0.3806

>  <Gold.PLP.part.buried>  (4) 
-3.6709

>  <Gold.PLP.part.hbond>  (4) 
-4.7085

>  <Gold.PLP.part.metal>  (4) 
0.0000

>  <Gold.PLP.part.nonpolar>  (4) 
-31.2918

>  <Gold.PLP.part.repulsive>  (4) 
0.6495

>  <Gold.Protein.RotatedAtoms>  (4) 


>  <Gold.Protein.RotatedTorsions>  (4) 


>  <Gold.Protein.RotatedWaterAtoms>  (4) 


>  <Gold.Version>  (4) 
5.3.0

>  <PLP.Chemscore.CHOScore>  (4) 


>  <PLP.Chemscore.Hbond>  (4) 


>  <PLP.Chemscore.Internal.Correction>  (4) 


>  <PLP.Chemscore.Metal>  (4) 


>  <PLP.Fitness>  (4) 


>  <PLP.PLP>  (4) 


>  <PLP.ligand.clash>  (4) 


>  <PLP.ligand.torsion>  (4) 


>  <PLP.part.buried>  (4) 


>  <PLP.part.hbond>  (4) 


>  <PLP.part.metal>  (4) 


>  <PLP.part.nonpolar>  (4) 


>  <PLP.part.repulsive>  (4) 


>  <Version>  (4) 


$$$$
3004|Compound_1816|Compounds_3D_F|sdf|536|dock3|1
     RDKit          3D

 29 33  0  0  0  0  0  0  0  0999 V2000
  -14.5203  -20.2282    8.1932 O   0  0  0  0  0  0  0  0  0  0  0  0
  -13.9702  -19.2613    9.0896 C   0  0  0  0  0  0  0  0  0  0  0  0
  -12.8749  -19.9137    9.9348 C   0  0  0  0  0  0  0  0  0  0  0  0
  -11.6163  -19.2283    9.7538 O   0  0  0  0  0  0  0  0  0  0  0  0
  -10.8045  -19.5312   10.9005 C   0  0  0  0  0  0  0  0  0  0  0  0
   -9.9624  -18.3799   11.2325 N   0  0  0  0  0  0  0  0  0  0  0  0
  -10.3909  -17.1830   11.7237 C   0  0  0  0  0  0  0  0  0  0  0  0
   -9.3759  -16.3885   11.9050 N   0  0  0  0  0  0  0  0  0  0  0  0
   -8.2357  -17.0226   11.5437 C   0  0  0  0  0  0  0  0  0  0  0  0
   -8.5976  -18.3104   11.1123 C   0  0  0  0  0  0  0  0  0  0  0  0
   -7.6485  -19.1439   10.6999 N   0  0  0  0  0  0  0  0  0  0  0  0
   -6.3855  -18.7718   10.6928 C   0  0  0  0  0  0  0  0  0  0  0  0
   -5.9981  -17.5723   11.0874 N   0  0  0  0  0  0  0  0  0  0  0  0
   -6.8752  -16.6739   11.5211 C   0  0  0  0  0  0  0  0  0  0  0  0
   -6.4580  -15.4166   11.9341 N   0  0  0  0  0  0  0  0  0  0  0  0
   -7.0699  -14.3128   11.4601 C   0  0  0  0  0  0  0  0  0  0  0  0
   -7.9882  -14.4198   10.6696 O   0  0  0  0  0  0  0  0  0  0  0  0
   -6.6269  -12.9781   11.8986 C   0  0  0  0  0  0  0  0  0  0  0  0
   -5.4081  -12.6598   12.4147 C   0  0  0  0  0  0  0  0  0  0  0  0
   -5.4261  -11.3436   12.6784 O   0  0  0  0  0  0  0  0  0  0  0  0
   -6.6288  -10.8630   12.3309 C   0  0  0  0  0  0  0  0  0  0  0  0
   -7.3562  -11.8308   11.8586 N   0  0  0  0  0  0  0  0  0  0  0  0
  -11.7590  -19.8425   12.0720 C   0  0  0  0  0  0  0  0  0  0  0  0
  -11.5580  -21.2247   12.4534 O   0  0  0  0  0  0  0  0  0  0  0  0
  -13.0521  -21.6679   12.9361 P   0  0  0  0  0  0  0  0  0  0  0  0
  -13.3109  -21.2398   14.3984 O   0  0  0  0  0  0  0  0  0  0  0  0
  -13.2626  -23.1886   12.7608 O   0  0  0  0  0  0  0  0  0  0  0  0
  -13.9880  -20.8254   11.9067 O   0  0  0  0  0  0  0  0  0  0  0  0
  -13.1724  -19.7383   11.4430 C   0  0  0  0  0  0  0  0  0  0  0  0
  1  2  1  0
  2  3  1  0
  3  4  1  0
  3 29  1  0
  4  5  1  0
  5  6  1  0
  5 23  1  0
  6  7  1  0
  6 10  1  0
  7  8  2  0
  8  9  1  0
  9 10  2  0
  9 14  1  0
 10 11  1  0
 11 12  2  0
 12 13  1  0
 13 14  2  0
 14 15  1  0
 15 16  1  0
 16 17  2  0
 16 18  1  0
 18 19  2  0
 18 22  1  0
 19 20  1  0
 20 21  1  0
 21 22  2  0
 23 24  1  0
 23 29  1  0
 24 25  1  0
 25 26  2  0
 25 27  1  0
 25 28  1  0
 28 29  1  0
M  CHG  1  27  -1
M  END
>  <Gold.Gold.Protein.RotatedWaterAtoms>  (5) 


>  <Gold.Id.Protein>  (5) 


>  <Gold.PLP.Chemscore.CHOScore>  (5) 
1.5294

>  <Gold.PLP.Chemscore.Hbond>  (5) 
3.0000

>  <Gold.PLP.Chemscore.Internal.Correction>  (5) 
0.3340

>  <Gold.PLP.Chemscore.Metal>  (5) 
0.0000

>  <Gold.PLP.Fitness>  (5) 
60.3894

>  <Gold.PLP.PLP>  (5) 
-49.5806

>  <Gold.PLP.ligand.clash>  (5) 
0.0000

>  <Gold.PLP.ligand.torsion>  (5) 
1.5568

>  <Gold.PLP.part.buried>  (5) 
-9.8496

>  <Gold.PLP.part.hbond>  (5) 
-3.0322

>  <Gold.PLP.part.metal>  (5) 
0.0000

>  <Gold.PLP.part.nonpolar>  (5) 
-39.8374

>  <Gold.PLP.part.repulsive>  (5) 
2.5309

>  <Gold.Protein.RotatedAtoms>  (5) 


>  <Gold.Protein.RotatedTorsions>  (5) 


>  <Gold.Protein.RotatedWaterAtoms>  (5) 


>  <Gold.Version>  (5) 
5.3.0

>  <PLP.Chemscore.CHOScore>  (5) 


>  <PLP.Chemscore.Hbond>  (5) 


>  <PLP.Chemscore.Internal.Correction>  (5) 


>  <PLP.Chemscore.Metal>  (5) 


>  <PLP.Fitness>  (5) 


>  <PLP.PLP>  (5) 


>  <PLP.ligand.clash>  (5) 


>  <PLP.ligand.torsion>  (5) 


>  <PLP.part.buried>  (5) 


>  <PLP.part.hbond>  (5) 


>  <PLP.part.metal>  (5) 


>  <PLP.part.nonpolar>  (5) 


>  <PLP.part.repulsive>  (5) 


>  <Version>  (5) 


$$$$
3005|Compound_1816|Compounds_3D_F|sdf|536|dock4|1
     RDKit          3D

 29 33  0  0  0  0  0  0  0  0999 V2000
  -13.9843  -20.0315    8.0498 O   0  0  0  0  0  0  0  0  0  0  0  0
  -14.1298  -19.5615    9.3911 C   0  0  0  0  0  0  0  0  0  0  0  0
  -12.9772  -20.0914   10.2456 C   0  0  0  0  0  0  0  0  0  0  0  0
  -11.7735  -19.3297   10.0052 O   0  0  0  0  0  0  0  0  0  0  0  0
  -10.9234  -19.5157   11.1491 C   0  0  0  0  0  0  0  0  0  0  0  0
  -10.1598  -18.2927   11.4060 N   0  0  0  0  0  0  0  0  0  0  0  0
  -10.6565  -17.1189   11.8883 C   0  0  0  0  0  0  0  0  0  0  0  0
   -9.7001  -16.2424   11.9948 N   0  0  0  0  0  0  0  0  0  0  0  0
   -8.5329  -16.7960   11.5899 C   0  0  0  0  0  0  0  0  0  0  0  0
   -8.8127  -18.1204   11.2117 C   0  0  0  0  0  0  0  0  0  0  0  0
   -7.8226  -18.8892   10.7710 N   0  0  0  0  0  0  0  0  0  0  0  0
   -6.5953  -18.4200   10.6873 C   0  0  0  0  0  0  0  0  0  0  0  0
   -6.2849  -17.1826   11.0296 N   0  0  0  0  0  0  0  0  0  0  0  0
   -7.2074  -16.3429   11.4860 C   0  0  0  0  0  0  0  0  0  0  0  0
   -6.8711  -15.0451   11.8436 N   0  0  0  0  0  0  0  0  0  0  0  0
   -7.5993  -14.0079   11.3839 C   0  0  0  0  0  0  0  0  0  0  0  0
   -8.5516  -14.2106   10.6547 O   0  0  0  0  0  0  0  0  0  0  0  0
   -7.2420  -12.6302   11.7637 C   0  0  0  0  0  0  0  0  0  0  0  0
   -6.1370  -12.2435   12.4583 C   0  0  0  0  0  0  0  0  0  0  0  0
   -6.2015  -10.9087   12.5854 O   0  0  0  0  0  0  0  0  0  0  0  0
   -7.3206  -10.4837   11.9810 C   0  0  0  0  0  0  0  0  0  0  0  0
   -7.9510  -11.5043   11.4812 N   0  0  0  0  0  0  0  0  0  0  0  0
  -11.8339  -19.8326   12.3537 C   0  0  0  0  0  0  0  0  0  0  0  0
  -11.5290  -21.1759   12.7996 O   0  0  0  0  0  0  0  0  0  0  0  0
  -12.9797  -21.6973   13.3339 P   0  0  0  0  0  0  0  0  0  0  0  0
  -13.2439  -21.2138   14.7778 O   0  0  0  0  0  0  0  0  0  0  0  0
  -13.0846  -23.2360   13.2391 O   0  0  0  0  0  0  0  0  0  0  0  0
  -13.9900  -20.9764   12.2827 O   0  0  0  0  0  0  0  0  0  0  0  0
  -13.2613  -19.8600   11.7489 C   0  0  0  0  0  0  0  0  0  0  0  0
  1  2  1  0
  2  3  1  0
  3  4  1  0
  3 29  1  0
  4  5  1  0
  5  6  1  0
  5 23  1  0
  6  7  1  0
  6 10  1  0
  7  8  2  0
  8  9  1  0
  9 10  2  0
  9 14  1  0
 10 11  1  0
 11 12  2  0
 12 13  1  0
 13 14  2  0
 14 15  1  0
 15 16  1  0
 16 17  2  0
 16 18  1  0
 18 19  2  0
 18 22  1  0
 19 20  1  0
 20 21  1  0
 21 22  2  0
 23 24  1  0
 23 29  1  0
 24 25  1  0
 25 26  2  0
 25 27  1  0
 25 28  1  0
 28 29  1  0
M  CHG  1  27  -1
M  END
>  <Gold.Gold.Protein.RotatedWaterAtoms>  (6) 


>  <Gold.Id.Protein>  (6) 


>  <Gold.PLP.Chemscore.CHOScore>  (6) 
0.1876

>  <Gold.PLP.Chemscore.Hbond>  (6) 
2.7920

>  <Gold.PLP.Chemscore.Internal.Correction>  (6) 
0.3340

>  <Gold.PLP.Chemscore.Metal>  (6) 
0.0000

>  <Gold.PLP.Fitness>  (6) 
58.8339

>  <Gold.PLP.PLP>  (6) 
-51.2165

>  <Gold.PLP.ligand.clash>  (6) 
0.0230

>  <Gold.PLP.ligand.torsion>  (6) 
0.8163

>  <Gold.PLP.part.buried>  (6) 
-8.9587

>  <Gold.PLP.part.hbond>  (6) 
-4.0645

>  <Gold.PLP.part.metal>  (6) 
0.0000

>  <Gold.PLP.part.nonpolar>  (6) 
-40.8715

>  <Gold.PLP.part.repulsive>  (6) 
2.2756

>  <Gold.Protein.RotatedAtoms>  (6) 


>  <Gold.Protein.RotatedTorsions>  (6) 


>  <Gold.Protein.RotatedWaterAtoms>  (6) 


>  <Gold.Version>  (6) 
5.3.0

>  <PLP.Chemscore.CHOScore>  (6) 


>  <PLP.Chemscore.Hbond>  (6) 


>  <PLP.Chemscore.Internal.Correction>  (6) 


>  <PLP.Chemscore.Metal>  (6) 


>  <PLP.Fitness>  (6) 


>  <PLP.PLP>  (6) 


>  <PLP.ligand.clash>  (6) 


>  <PLP.ligand.torsion>  (6) 


>  <PLP.part.buried>  (6) 


>  <PLP.part.hbond>  (6) 


>  <PLP.part.metal>  (6) 


>  <PLP.part.nonpolar>  (6) 


>  <PLP.part.repulsive>  (6) 


>  <Version>  (6) 


$$$$
3006|Compound_1816|Compounds_3D_F|sdf|536|dock5|1
     RDKit          3D

 29 33  0  0  0  0  0  0  0  0999 V2000
   -9.9882  -13.6145   10.8434 O   0  0  0  0  0  0  0  0  0  0  0  0
   -8.8024  -13.5553   11.6380 C   0  0  0  0  0  0  0  0  0  0  0  0
   -8.2934  -14.9733   11.9018 C   0  0  0  0  0  0  0  0  0  0  0  0
   -9.3958  -15.9033   11.9809 O   0  0  0  0  0  0  0  0  0  0  0  0
   -8.8620  -17.2111   11.7148 C   0  0  0  0  0  0  0  0  0  0  0  0
   -9.8547  -18.0184   11.0024 N   0  0  0  0  0  0  0  0  0  0  0  0
   -9.6436  -18.7324    9.8609 C   0  0  0  0  0  0  0  0  0  0  0  0
  -10.7420  -19.3321    9.5028 N   0  0  0  0  0  0  0  0  0  0  0  0
  -11.7240  -19.0429   10.3886 C   0  0  0  0  0  0  0  0  0  0  0  0
  -11.1652  -18.2002   11.3648 C   0  0  0  0  0  0  0  0  0  0  0  0
  -11.9318  -17.7679   12.3604 N   0  0  0  0  0  0  0  0  0  0  0  0
  -13.1981  -18.1210   12.4341 C   0  0  0  0  0  0  0  0  0  0  0  0
  -13.7670  -18.9094   11.5399 N   0  0  0  0  0  0  0  0  0  0  0  0
  -13.0782  -19.3944   10.5129 C   0  0  0  0  0  0  0  0  0  0  0  0
  -13.6850  -20.2224    9.5792 N   0  0  0  0  0  0  0  0  0  0  0  0
  -14.2594  -21.3767    9.9728 C   0  0  0  0  0  0  0  0  0  0  0  0
  -14.2452  -21.6923   11.1475 O   0  0  0  0  0  0  0  0  0  0  0  0
  -14.9035  -22.2555    8.9814 C   0  0  0  0  0  0  0  0  0  0  0  0
  -15.1011  -21.9792    7.6632 C   0  0  0  0  0  0  0  0  0  0  0  0
  -15.7178  -23.0446    7.1279 O   0  0  0  0  0  0  0  0  0  0  0  0
  -15.8942  -23.9565    8.0951 C   0  0  0  0  0  0  0  0  0  0  0  0
  -15.4074  -23.4981    9.2093 N   0  0  0  0  0  0  0  0  0  0  0  0
   -7.6048  -17.0266   10.8397 C   0  0  0  0  0  0  0  0  0  0  0  0
   -6.4634  -17.4944   11.5979 O   0  0  0  0  0  0  0  0  0  0  0  0
   -5.2769  -16.5027   11.0780 P   0  0  0  0  0  0  0  0  0  0  0  0
   -4.6759  -17.0090    9.7473 O   0  0  0  0  0  0  0  0  0  0  0  0
   -4.1790  -16.3411   12.1534 O   0  0  0  0  0  0  0  0  0  0  0  0
   -6.0904  -15.1114   10.8592 O   0  0  0  0  0  0  0  0  0  0  0  0
   -7.4668  -15.4886   10.6996 C   0  0  0  0  0  0  0  0  0  0  0  0
  1  2  1  0
  2  3  1  0
  3  4  1  0
  3 29  1  0
  4  5  1  0
  5  6  1  0
  5 23  1  0
  6  7  1  0
  6 10  1  0
  7  8  2  0
  8  9  1  0
  9 10  2  0
  9 14  1  0
 10 11  1  0
 11 12  2  0
 12 13  1  0
 13 14  2  0
 14 15  1  0
 15 16  1  0
 16 17  2  0
 16 18  1  0
 18 19  2  0
 18 22  1  0
 19 20  1  0
 20 21  1  0
 21 22  2  0
 23 24  1  0
 23 29  1  0
 24 25  1  0
 25 26  2  0
 25 27  1  0
 25 28  1  0
 28 29  1  0
M  CHG  1  27  -1
M  END
>  <Gold.Gold.Protein.RotatedWaterAtoms>  (7) 


>  <Gold.Id.Protein>  (7) 


>  <Gold.PLP.Chemscore.CHOScore>  (7) 
1.0000

>  <Gold.PLP.Chemscore.Hbond>  (7) 
3.6120

>  <Gold.PLP.Chemscore.Internal.Correction>  (7) 
0.3340

>  <Gold.PLP.Chemscore.Metal>  (7) 
0.0000

>  <Gold.PLP.Fitness>  (7) 
60.1765

>  <Gold.PLP.PLP>  (7) 
-48.1321

>  <Gold.PLP.ligand.clash>  (7) 
0.0000

>  <Gold.PLP.ligand.torsion>  (7) 
1.0628

>  <Gold.PLP.part.buried>  (7) 
-8.6873

>  <Gold.PLP.part.hbond>  (7) 
-5.4616

>  <Gold.PLP.part.metal>  (7) 
0.0000

>  <Gold.PLP.part.nonpolar>  (7) 
-35.5649

>  <Gold.PLP.part.repulsive>  (7) 
0.8898

>  <Gold.Protein.RotatedAtoms>  (7) 


>  <Gold.Protein.RotatedTorsions>  (7) 


>  <Gold.Protein.RotatedWaterAtoms>  (7) 


>  <Gold.Version>  (7) 
5.3.0

>  <PLP.Chemscore.CHOScore>  (7) 


>  <PLP.Chemscore.Hbond>  (7) 


>  <PLP.Chemscore.Internal.Correction>  (7) 


>  <PLP.Chemscore.Metal>  (7) 


>  <PLP.Fitness>  (7) 


>  <PLP.PLP>  (7) 


>  <PLP.ligand.clash>  (7) 


>  <PLP.ligand.torsion>  (7) 


>  <PLP.part.buried>  (7) 


>  <PLP.part.hbond>  (7) 


>  <PLP.part.metal>  (7) 


>  <PLP.part.nonpolar>  (7) 


>  <PLP.part.repulsive>  (7) 


>  <Version>  (7) 


$$$$
3007|Compound_1816|Compounds_3D_F|sdf|536|dock6|1
     RDKit          3D

 29 33  0  0  0  0  0  0  0  0999 V2000
  -15.0994  -20.7089    8.1105 O   0  0  0  0  0  0  0  0  0  0  0  0
  -14.1565  -19.7546    8.6016 C   0  0  0  0  0  0  0  0  0  0  0  0
  -13.1290  -20.4613    9.4872 C   0  0  0  0  0  0  0  0  0  0  0  0
  -11.8350  -19.8304    9.3683 O   0  0  0  0  0  0  0  0  0  0  0  0
  -11.0885  -20.1779   10.5464 C   0  0  0  0  0  0  0  0  0  0  0  0
  -10.2126  -19.0674   10.9262 N   0  0  0  0  0  0  0  0  0  0  0  0
  -10.6000  -17.8992   11.5114 C   0  0  0  0  0  0  0  0  0  0  0  0
   -9.5635  -17.1376   11.7112 N   0  0  0  0  0  0  0  0  0  0  0  0
   -8.4490  -17.7662   11.2691 C   0  0  0  0  0  0  0  0  0  0  0  0
   -8.8513  -19.0148   10.7645 C   0  0  0  0  0  0  0  0  0  0  0  0
   -7.9335  -19.8355   10.2645 N   0  0  0  0  0  0  0  0  0  0  0  0
   -6.6641  -19.4868   10.2394 C   0  0  0  0  0  0  0  0  0  0  0  0
   -6.2395  -18.3242   10.7006 N   0  0  0  0  0  0  0  0  0  0  0  0
   -7.0832  -17.4417   11.2236 C   0  0  0  0  0  0  0  0  0  0  0  0
   -6.6269  -16.2232   11.7060 N   0  0  0  0  0  0  0  0  0  0  0  0
   -7.2200  -15.0775   11.3149 C   0  0  0  0  0  0  0  0  0  0  0  0
   -8.1556  -15.1125   10.5383 O   0  0  0  0  0  0  0  0  0  0  0  0
   -6.7355  -13.7841   11.8271 C   0  0  0  0  0  0  0  0  0  0  0  0
   -7.3563  -12.5795   11.6981 C   0  0  0  0  0  0  0  0  0  0  0  0
   -6.5778  -11.6706   12.3062 O   0  0  0  0  0  0  0  0  0  0  0  0
   -5.5027  -12.3024   12.7994 C   0  0  0  0  0  0  0  0  0  0  0  0
   -5.5868  -13.5694   12.5230 N   0  0  0  0  0  0  0  0  0  0  0  0
  -12.1064  -20.4564   11.6718 C   0  0  0  0  0  0  0  0  0  0  0  0
  -11.9828  -21.8491   12.0478 O   0  0  0  0  0  0  0  0  0  0  0  0
  -13.5146  -22.2300   12.4604 P   0  0  0  0  0  0  0  0  0  0  0  0
  -13.8187  -21.8027   13.9141 O   0  0  0  0  0  0  0  0  0  0  0  0
  -13.7833  -23.7386   12.2608 O   0  0  0  0  0  0  0  0  0  0  0  0
  -14.3667  -21.3390   11.3995 O   0  0  0  0  0  0  0  0  0  0  0  0
  -13.4848  -20.2851   10.9828 C   0  0  0  0  0  0  0  0  0  0  0  0
  1  2  1  0
  2  3  1  0
  3  4  1  0
  3 29  1  0
  4  5  1  0
  5  6  1  0
  5 23  1  0
  6  7  1  0
  6 10  1  0
  7  8  2  0
  8  9  1  0
  9 10  2  0
  9 14  1  0
 10 11  1  0
 11 12  2  0
 12 13  1  0
 13 14  2  0
 14 15  1  0
 15 16  1  0
 16 17  2  0
 16 18  1  0
 18 19  2  0
 18 22  1  0
 19 20  1  0
 20 21  1  0
 21 22  2  0
 23 24  1  0
 23 29  1  0
 24 25  1  0
 25 26  2  0
 25 27  1  0
 25 28  1  0
 28 29  1  0
M  CHG  1  27  -1
M  END
>  <Gold.Gold.Protein.RotatedWaterAtoms>  (8) 


>  <Gold.Id.Protein>  (8) 


>  <Gold.PLP.Chemscore.CHOScore>  (8) 
1.4571

>  <Gold.PLP.Chemscore.Hbond>  (8) 
3.4978

>  <Gold.PLP.Chemscore.Internal.Correction>  (8) 
0.3340

>  <Gold.PLP.Chemscore.Metal>  (8) 
0.0000

>  <Gold.PLP.Fitness>  (8) 
57.9564

>  <Gold.PLP.PLP>  (8) 
-45.5100

>  <Gold.PLP.ligand.clash>  (8) 
0.0000

>  <Gold.PLP.ligand.torsion>  (8) 
1.3760

>  <Gold.PLP.part.buried>  (8) 
-5.5366

>  <Gold.PLP.part.hbond>  (8) 
-5.3185

>  <Gold.PLP.part.metal>  (8) 
0.0000

>  <Gold.PLP.part.nonpolar>  (8) 
-35.1903

>  <Gold.PLP.part.repulsive>  (8) 
0.8650

>  <Gold.Protein.RotatedAtoms>  (8) 


>  <Gold.Protein.RotatedTorsions>  (8) 


>  <Gold.Protein.RotatedWaterAtoms>  (8) 


>  <Gold.Version>  (8) 
5.3.0

>  <PLP.Chemscore.CHOScore>  (8) 


>  <PLP.Chemscore.Hbond>  (8) 


>  <PLP.Chemscore.Internal.Correction>  (8) 


>  <PLP.Chemscore.Metal>  (8) 


>  <PLP.Fitness>  (8) 


>  <PLP.PLP>  (8) 


>  <PLP.ligand.clash>  (8) 


>  <PLP.ligand.torsion>  (8) 


>  <PLP.part.buried>  (8) 


>  <PLP.part.hbond>  (8) 


>  <PLP.part.metal>  (8) 


>  <PLP.part.nonpolar>  (8) 


>  <PLP.part.repulsive>  (8) 


>  <Version>  (8) 


$$$$
3008|Compound_1816|Compounds_3D_F|sdf|536|dock7|1
     RDKit          3D

 29 33  0  0  0  0  0  0  0  0999 V2000
  -10.0188  -13.5123   10.8499 O   0  0  0  0  0  0  0  0  0  0  0  0
   -8.8507  -13.4764   11.6717 C   0  0  0  0  0  0  0  0  0  0  0  0
   -8.3252  -14.8984   11.8744 C   0  0  0  0  0  0  0  0  0  0  0  0
   -9.4187  -15.8393   11.9492 O   0  0  0  0  0  0  0  0  0  0  0  0
   -8.8824  -17.1330   11.6255 C   0  0  0  0  0  0  0  0  0  0  0  0
   -9.8869  -17.9236   10.9109 N   0  0  0  0  0  0  0  0  0  0  0  0
   -9.7090  -18.5696    9.7241 C   0  0  0  0  0  0  0  0  0  0  0  0
  -10.8086  -19.1746    9.3788 N   0  0  0  0  0  0  0  0  0  0  0  0
  -11.7583  -18.9570   10.3186 C   0  0  0  0  0  0  0  0  0  0  0  0
  -11.1768  -18.1555   11.3162 C   0  0  0  0  0  0  0  0  0  0  0  0
  -11.9098  -17.7959   12.3646 N   0  0  0  0  0  0  0  0  0  0  0  0
  -13.1640  -18.1821   12.4704 C   0  0  0  0  0  0  0  0  0  0  0  0
  -13.7533  -18.9340   11.5582 N   0  0  0  0  0  0  0  0  0  0  0  0
  -13.0983  -19.3464   10.4787 C   0  0  0  0  0  0  0  0  0  0  0  0
  -13.7262  -20.1365    9.5264 N   0  0  0  0  0  0  0  0  0  0  0  0
  -13.8921  -21.4561    9.7470 C   0  0  0  0  0  0  0  0  0  0  0  0
  -13.4905  -21.9539   10.7817 O   0  0  0  0  0  0  0  0  0  0  0  0
  -14.5587  -22.2948    8.7359 C   0  0  0  0  0  0  0  0  0  0  0  0
  -15.4761  -21.8810    7.8193 C   0  0  0  0  0  0  0  0  0  0  0  0
  -15.8229  -22.9588    7.0982 O   0  0  0  0  0  0  0  0  0  0  0  0
  -15.1330  -24.0118    7.5602 C   0  0  0  0  0  0  0  0  0  0  0  0
  -14.3691  -23.6271    8.5385 N   0  0  0  0  0  0  0  0  0  0  0  0
   -7.6489  -16.9091   10.7263 C   0  0  0  0  0  0  0  0  0  0  0  0
   -6.4856  -17.3931   11.4395 O   0  0  0  0  0  0  0  0  0  0  0  0
   -5.3195  -16.3750   10.9243 P   0  0  0  0  0  0  0  0  0  0  0  0
   -4.7485  -16.8312    9.5626 O   0  0  0  0  0  0  0  0  0  0  0  0
   -4.1962  -16.2411   11.9769 O   0  0  0  0  0  0  0  0  0  0  0  0
   -6.1481  -14.9836   10.7733 O   0  0  0  0  0  0  0  0  0  0  0  0
   -7.5254  -15.3662   10.6351 C   0  0  0  0  0  0  0  0  0  0  0  0
  1  2  1  0
  2  3  1  0
  3  4  1  0
  3 29  1  0
  4  5  1  0
  5  6  1  0
  5 23  1  0
  6  7  1  0
  6 10  1  0
  7  8  2  0
  8  9  1  0
  9 10  2  0
  9 14  1  0
 10 11  1  0
 11 12  2  0
 12 13  1  0
 13 14  2  0
 14 15  1  0
 15 16  1  0
 16 17  2  0
 16 18  1  0
 18 19  2  0
 18 22  1  0
 19 20  1  0
 20 21  1  0
 21 22  2  0
 23 24  1  0
 23 29  1  0
 24 25  1  0
 25 26  2  0
 25 27  1  0
 25 28  1  0
 28 29  1  0
M  CHG  1  27  -1
M  END
>  <Gold.Gold.Protein.RotatedWaterAtoms>  (9) 


>  <Gold.Id.Protein>  (9) 


>  <Gold.PLP.Chemscore.CHOScore>  (9) 
1.7460

>  <Gold.PLP.Chemscore.Hbond>  (9) 
3.8560

>  <Gold.PLP.Chemscore.Internal.Correction>  (9) 
0.3340

>  <Gold.PLP.Chemscore.Metal>  (9) 
0.0000

>  <Gold.PLP.Fitness>  (9) 
60.8444

>  <Gold.PLP.PLP>  (9) 
-46.5418

>  <Gold.PLP.ligand.clash>  (9) 
0.0000

>  <Gold.PLP.ligand.torsion>  (9) 
1.4186

>  <Gold.PLP.part.buried>  (9) 
-5.3342

>  <Gold.PLP.part.hbond>  (9) 
-6.1112

>  <Gold.PLP.part.metal>  (9) 
0.0000

>  <Gold.PLP.part.nonpolar>  (9) 
-36.0036

>  <Gold.PLP.part.repulsive>  (9) 
0.8572

>  <Gold.Protein.RotatedAtoms>  (9) 


>  <Gold.Protein.RotatedTorsions>  (9) 


>  <Gold.Protein.RotatedWaterAtoms>  (9) 


>  <Gold.Version>  (9) 
5.3.0

>  <PLP.Chemscore.CHOScore>  (9) 


>  <PLP.Chemscore.Hbond>  (9) 


>  <PLP.Chemscore.Internal.Correction>  (9) 


>  <PLP.Chemscore.Metal>  (9) 


>  <PLP.Fitness>  (9) 


>  <PLP.PLP>  (9) 


>  <PLP.ligand.clash>  (9) 


>  <PLP.ligand.torsion>  (9) 


>  <PLP.part.buried>  (9) 


>  <PLP.part.hbond>  (9) 


>  <PLP.part.metal>  (9) 


>  <PLP.part.nonpolar>  (9) 


>  <PLP.part.repulsive>  (9) 


>  <Version>  (9) 


$$$$
3009|Compound_1816|Compounds_3D_F|sdf|536|dock8|1
     RDKit          3D

 29 33  0  0  0  0  0  0  0  0999 V2000
  -10.2933  -14.0516   13.0241 O   0  0  0  0  0  0  0  0  0  0  0  0
   -9.4447  -14.2031   11.8848 C   0  0  0  0  0  0  0  0  0  0  0  0
   -8.7945  -15.5873   11.9130 C   0  0  0  0  0  0  0  0  0  0  0  0
   -9.7947  -16.6160   12.0804 O   0  0  0  0  0  0  0  0  0  0  0  0
   -9.2214  -17.8419   11.5962 C   0  0  0  0  0  0  0  0  0  0  0  0
  -10.2618  -18.6693   10.9816 N   0  0  0  0  0  0  0  0  0  0  0  0
  -10.4699  -18.8418    9.6458 C   0  0  0  0  0  0  0  0  0  0  0  0
  -11.4780  -19.6423    9.4533 N   0  0  0  0  0  0  0  0  0  0  0  0
  -11.9788  -20.0337   10.6485 C   0  0  0  0  0  0  0  0  0  0  0  0
  -11.2011  -19.4179   11.6443 C   0  0  0  0  0  0  0  0  0  0  0  0
  -11.4908  -19.6431   12.9214 N   0  0  0  0  0  0  0  0  0  0  0  0
  -12.4924  -20.4305   13.2534 C   0  0  0  0  0  0  0  0  0  0  0  0
  -13.2512  -21.0294   12.3534 N   0  0  0  0  0  0  0  0  0  0  0  0
  -13.0340  -20.8680   11.0529 C   0  0  0  0  0  0  0  0  0  0  0  0
  -13.8366  -21.5020   10.1153 N   0  0  0  0  0  0  0  0  0  0  0  0
  -14.4545  -22.6588   10.4274 C   0  0  0  0  0  0  0  0  0  0  0  0
  -14.3076  -23.1468   11.5319 O   0  0  0  0  0  0  0  0  0  0  0  0
  -15.3065  -23.3318    9.4318 C   0  0  0  0  0  0  0  0  0  0  0  0
  -15.8587  -22.7646    8.3244 C   0  0  0  0  0  0  0  0  0  0  0  0
  -16.5558  -23.7258    7.6982 O   0  0  0  0  0  0  0  0  0  0  0  0
  -16.4338  -24.8594    8.4041 C   0  0  0  0  0  0  0  0  0  0  0  0
  -15.6849  -24.6382    9.4428 N   0  0  0  0  0  0  0  0  0  0  0  0
   -8.1544  -17.4687   10.5461 C   0  0  0  0  0  0  0  0  0  0  0  0
   -6.8664  -17.8969   11.0502 O   0  0  0  0  0  0  0  0  0  0  0  0
   -5.8656  -16.7606   10.4427 P   0  0  0  0  0  0  0  0  0  0  0  0
   -5.4722  -17.0917    8.9853 O   0  0  0  0  0  0  0  0  0  0  0  0
   -4.6108  -16.5963   11.3295 O   0  0  0  0  0  0  0  0  0  0  0  0
   -6.8048  -15.4343   10.5070 O   0  0  0  0  0  0  0  0  0  0  0  0
   -8.1564  -15.9182   10.5428 C   0  0  0  0  0  0  0  0  0  0  0  0
  1  2  1  0
  2  3  1  0
  3  4  1  0
  3 29  1  0
  4  5  1  0
  5  6  1  0
  5 23  1  0
  6  7  1  0
  6 10  1  0
  7  8  2  0
  8  9  1  0
  9 10  2  0
  9 14  1  0
 10 11  1  0
 11 12  2  0
 12 13  1  0
 13 14  2  0
 14 15  1  0
 15 16  1  0
 16 17  2  0
 16 18  1  0
 18 19  2  0
 18 22  1  0
 19 20  1  0
 20 21  1  0
 21 22  2  0
 23 24  1  0
 23 29  1  0
 24 25  1  0
 25 26  2  0
 25 27  1  0
 25 28  1  0
 28 29  1  0
M  CHG  1  27  -1
M  END
>  <Gold.Gold.Protein.RotatedWaterAtoms>  (10) 


>  <Gold.Id.Protein>  (10) 


>  <Gold.PLP.Chemscore.CHOScore>  (10) 
0.7140

>  <Gold.PLP.Chemscore.Hbond>  (10) 
4.5077

>  <Gold.PLP.Chemscore.Internal.Correction>  (10) 
0.3140

>  <Gold.PLP.Chemscore.Metal>  (10) 
0.0000

>  <Gold.PLP.Fitness>  (10) 
54.6034

>  <Gold.PLP.PLP>  (10) 
-40.1943

>  <Gold.PLP.ligand.clash>  (10) 
0.0000

>  <Gold.PLP.ligand.torsion>  (10) 
0.7850

>  <Gold.PLP.part.buried>  (10) 
-4.8926

>  <Gold.PLP.part.hbond>  (10) 
-8.4387

>  <Gold.PLP.part.metal>  (10) 
0.0000

>  <Gold.PLP.part.nonpolar>  (10) 
-26.6690

>  <Gold.PLP.part.repulsive>  (10) 
0.5893

>  <Gold.Protein.RotatedAtoms>  (10) 


>  <Gold.Protein.RotatedTorsions>  (10) 


>  <Gold.Protein.RotatedWaterAtoms>  (10) 


>  <Gold.Version>  (10) 
5.3.0

>  <PLP.Chemscore.CHOScore>  (10) 


>  <PLP.Chemscore.Hbond>  (10) 


>  <PLP.Chemscore.Internal.Correction>  (10) 


>  <PLP.Chemscore.Metal>  (10) 


>  <PLP.Fitness>  (10) 


>  <PLP.PLP>  (10) 


>  <PLP.ligand.clash>  (10) 


>  <PLP.ligand.torsion>  (10) 


>  <PLP.part.buried>  (10) 


>  <PLP.part.hbond>  (10) 


>  <PLP.part.metal>  (10) 


>  <PLP.part.nonpolar>  (10) 


>  <PLP.part.repulsive>  (10) 


>  <Version>  (10) 


$$$$
3010|Compound_1816|Compounds_3D_F|sdf|536|dock9|1
     RDKit          3D

 29 33  0  0  0  0  0  0  0  0999 V2000
  -10.0253  -13.6189   10.6315 O   0  0  0  0  0  0  0  0  0  0  0  0
   -9.0483  -13.5574   11.6720 C   0  0  0  0  0  0  0  0  0  0  0  0
   -8.4626  -14.9510   11.9053 C   0  0  0  0  0  0  0  0  0  0  0  0
   -9.5101  -15.9454   11.9313 O   0  0  0  0  0  0  0  0  0  0  0  0
   -8.8949  -17.2111   11.6390 C   0  0  0  0  0  0  0  0  0  0  0  0
   -9.8229  -18.0523   10.8802 N   0  0  0  0  0  0  0  0  0  0  0  0
   -9.6187  -18.5516    9.6287 C   0  0  0  0  0  0  0  0  0  0  0  0
  -10.6478  -19.2577    9.2590 N   0  0  0  0  0  0  0  0  0  0  0  0
  -11.5742  -19.2571   10.2460 C   0  0  0  0  0  0  0  0  0  0  0  0
  -11.0540  -18.4875   11.3009 C   0  0  0  0  0  0  0  0  0  0  0  0
  -11.7786  -18.3293   12.4034 N   0  0  0  0  0  0  0  0  0  0  0  0
  -12.9683  -18.8833   12.5096 C   0  0  0  0  0  0  0  0  0  0  0  0
  -13.4986  -19.6132   11.5449 N   0  0  0  0  0  0  0  0  0  0  0  0
  -12.8461  -19.8306   10.4085 C   0  0  0  0  0  0  0  0  0  0  0  0
  -13.4117  -20.5994    9.4013 N   0  0  0  0  0  0  0  0  0  0  0  0
  -13.9798  -21.7859    9.6960 C   0  0  0  0  0  0  0  0  0  0  0  0
  -13.9960  -22.1825   10.8459 O   0  0  0  0  0  0  0  0  0  0  0  0
  -14.5802  -22.6020    8.6266 C   0  0  0  0  0  0  0  0  0  0  0  0
  -15.3712  -22.1527    7.6139 C   0  0  0  0  0  0  0  0  0  0  0  0
  -15.6980  -23.2206    6.8690 O   0  0  0  0  0  0  0  0  0  0  0  0
  -15.1196  -24.3023    7.4107 C   0  0  0  0  0  0  0  0  0  0  0  0
  -14.4439  -23.9452    8.4616 N   0  0  0  0  0  0  0  0  0  0  0  0
   -7.6322  -16.9271   10.7992 C   0  0  0  0  0  0  0  0  0  0  0  0
   -6.4818  -17.3511   11.5694 O   0  0  0  0  0  0  0  0  0  0  0  0
   -5.3446  -16.2766   11.1067 P   0  0  0  0  0  0  0  0  0  0  0  0
   -4.6866  -16.7059    9.7759 O   0  0  0  0  0  0  0  0  0  0  0  0
   -4.2814  -16.0849   12.2116 O   0  0  0  0  0  0  0  0  0  0  0  0
   -6.2335  -14.9287   10.9105 O   0  0  0  0  0  0  0  0  0  0  0  0
   -7.5816  -15.3801   10.7078 C   0  0  0  0  0  0  0  0  0  0  0  0
  1  2  1  0
  2  3  1  0
  3  4  1  0
  3 29  1  0
  4  5  1  0
  5  6  1  0
  5 23  1  0
  6  7  1  0
  6 10  1  0
  7  8  2  0
  8  9  1  0
  9 10  2  0
  9 14  1  0
 10 11  1  0
 11 12  2  0
 12 13  1  0
 13 14  2  0
 14 15  1  0
 15 16  1  0
 16 17  2  0
 16 18  1  0
 18 19  2  0
 18 22  1  0
 19 20  1  0
 20 21  1  0
 21 22  2  0
 23 24  1  0
 23 29  1  0
 24 25  1  0
 25 26  2  0
 25 27  1  0
 25 28  1  0
 28 29  1  0
M  CHG  1  27  -1
M  END
>  <Gold.Gold.Protein.RotatedWaterAtoms>  (11) 


>  <Gold.Id.Protein>  (11) 


>  <Gold.PLP.Chemscore.CHOScore>  (11) 
1.9966

>  <Gold.PLP.Chemscore.Hbond>  (11) 
3.4256

>  <Gold.PLP.Chemscore.Internal.Correction>  (11) 
0.3140

>  <Gold.PLP.Chemscore.Metal>  (11) 
0.0000

>  <Gold.PLP.Fitness>  (11) 
58.8505

>  <Gold.PLP.PLP>  (11) 
-44.6724

>  <Gold.PLP.ligand.clash>  (11) 
0.0000

>  <Gold.PLP.ligand.torsion>  (11) 
1.2012

>  <Gold.PLP.part.buried>  (11) 
-5.3006

>  <Gold.PLP.part.hbond>  (11) 
-5.0718

>  <Gold.PLP.part.metal>  (11) 
0.0000

>  <Gold.PLP.part.nonpolar>  (11) 
-34.6550

>  <Gold.PLP.part.repulsive>  (11) 
0.9719

>  <Gold.Protein.RotatedAtoms>  (11) 


>  <Gold.Protein.RotatedTorsions>  (11) 


>  <Gold.Protein.RotatedWaterAtoms>  (11) 


>  <Gold.Version>  (11) 
5.3.0

>  <PLP.Chemscore.CHOScore>  (11) 


>  <PLP.Chemscore.Hbond>  (11) 


>  <PLP.Chemscore.Internal.Correction>  (11) 


>  <PLP.Chemscore.Metal>  (11) 


>  <PLP.Fitness>  (11) 


>  <PLP.PLP>  (11) 


>  <PLP.ligand.clash>  (11) 


>  <PLP.ligand.torsion>  (11) 


>  <PLP.part.buried>  (11) 


>  <PLP.part.hbond>  (11) 


>  <PLP.part.metal>  (11) 


>  <PLP.part.nonpolar>  (11) 


>  <PLP.part.repulsive>  (11) 


>  <Version>  (11) 


$$$$
3011|Compound_1830|Compounds_3D_F|sdf|537|dock1|1
     RDKit          3D

 18 19  0  0  0  0  0  0  0  0999 V2000
   -7.7936  -15.0857   11.4793 N   0  0  0  0  0  0  0  0  0  0  0  0
   -8.4262  -13.9534   11.8463 C   0  0  0  0  0  0  0  0  0  0  0  0
   -9.6225  -13.9689   12.0646 O   0  0  0  0  0  0  0  0  0  0  0  0
   -7.6674  -12.6972   11.9829 C   0  0  0  0  0  0  0  0  0  0  0  0
   -8.0807  -11.4580   11.6008 C   0  0  0  0  0  0  0  0  0  0  0  0
   -7.0903  -10.6039   11.9055 O   0  0  0  0  0  0  0  0  0  0  0  0
   -6.0910  -11.3032   12.4624 C   0  0  0  0  0  0  0  0  0  0  0  0
   -6.4247  -12.5573   12.5195 N   0  0  0  0  0  0  0  0  0  0  0  0
   -8.5070  -16.2656   11.3458 C   0  0  0  0  0  0  0  0  0  0  0  0
   -9.7445  -16.4498   11.7223 N   0  0  0  0  0  0  0  0  0  0  0  0
  -10.0961  -17.7327   11.4284 C   0  0  0  0  0  0  0  0  0  0  0  0
   -9.0136  -18.3252   10.8547 C   0  0  0  0  0  0  0  0  0  0  0  0
   -8.0377  -17.4017   10.8052 O   0  0  0  0  0  0  0  0  0  0  0  0
  -11.4029  -18.3620   11.6838 C   0  0  0  0  0  0  0  0  0  0  0  0
  -12.2154  -17.8086   12.3970 O   0  0  0  0  0  0  0  0  0  0  0  0
  -11.6975  -19.5526   11.1237 O   0  0  0  0  0  0  0  0  0  0  0  0
  -13.1028  -19.9054   11.0285 C   0  0  0  0  0  0  0  0  0  0  0  0
  -13.7680  -19.0598    9.9400 C   0  0  0  0  0  0  0  0  0  0  0  0
  1  2  1  0
  1  9  1  0
  2  3  2  0
  2  4  1  0
  4  5  2  0
  4  8  1  0
  5  6  1  0
  6  7  1  0
  7  8  2  0
  9 10  2  0
  9 13  1  0
 10 11  1  0
 11 12  2  0
 11 14  1  0
 12 13  1  0
 14 15  2  0
 14 16  1  0
 16 17  1  0
 17 18  1  0
M  END
>  <Gold.Gold.Protein.RotatedWaterAtoms>  (12) 


>  <Gold.Id.Protein>  (12) 


>  <Gold.PLP.Chemscore.CHOScore>  (12) 
1.0000

>  <Gold.PLP.Chemscore.Hbond>  (12) 
2.0000

>  <Gold.PLP.Chemscore.Internal.Correction>  (12) 
0.1040

>  <Gold.PLP.Chemscore.Metal>  (12) 
0.0000

>  <Gold.PLP.Fitness>  (12) 
48.1771

>  <Gold.PLP.PLP>  (12) 
-41.1495

>  <Gold.PLP.ligand.clash>  (12) 
0.0000

>  <Gold.PLP.ligand.torsion>  (12) 
1.0382

>  <Gold.PLP.part.buried>  (12) 
-8.5075

>  <Gold.PLP.part.hbond>  (12) 
-4.0000

>  <Gold.PLP.part.metal>  (12) 
0.0000

>  <Gold.PLP.part.nonpolar>  (12) 
-29.1989

>  <Gold.PLP.part.repulsive>  (12) 
0.7421

>  <Gold.Protein.RotatedAtoms>  (12) 


>  <Gold.Protein.RotatedTorsions>  (12) 


>  <Gold.Protein.RotatedWaterAtoms>  (12) 


>  <Gold.Version>  (12) 
5.3.0

>  <PLP.Chemscore.CHOScore>  (12) 


>  <PLP.Chemscore.Hbond>  (12) 


>  <PLP.Chemscore.Internal.Correction>  (12) 


>  <PLP.Chemscore.Metal>  (12) 


>  <PLP.Fitness>  (12) 


>  <PLP.PLP>  (12) 


>  <PLP.ligand.clash>  (12) 


>  <PLP.ligand.torsion>  (12) 


>  <PLP.part.buried>  (12) 


>  <PLP.part.hbond>  (12) 


>  <PLP.part.metal>  (12) 


>  <PLP.part.nonpolar>  (12) 


>  <PLP.part.repulsive>  (12) 


>  <Version>  (12) 


$$$$
3012|Compound_1830|Compounds_3D_F|sdf|537|dock2|1
     RDKit          3D

 18 19  0  0  0  0  0  0  0  0999 V2000
   -7.5701  -15.6935   11.9425 N   0  0  0  0  0  0  0  0  0  0  0  0
   -7.9492  -14.4189   11.7217 C   0  0  0  0  0  0  0  0  0  0  0  0
   -9.0648  -14.1809   11.3001 O   0  0  0  0  0  0  0  0  0  0  0  0
   -7.0113  -13.3145   11.9918 C   0  0  0  0  0  0  0  0  0  0  0  0
   -7.2820  -11.9838   11.8999 C   0  0  0  0  0  0  0  0  0  0  0  0
   -6.1557  -11.3315   12.2305 O   0  0  0  0  0  0  0  0  0  0  0  0
   -5.2143  -12.2416   12.5190 C   0  0  0  0  0  0  0  0  0  0  0  0
   -5.7139  -13.4331   12.3850 N   0  0  0  0  0  0  0  0  0  0  0  0
   -8.4494  -16.7322   11.6842 C   0  0  0  0  0  0  0  0  0  0  0  0
   -9.7446  -16.6879   11.8501 N   0  0  0  0  0  0  0  0  0  0  0  0
  -10.2647  -17.8951   11.4924 C   0  0  0  0  0  0  0  0  0  0  0  0
   -9.2251  -18.6809   11.1004 C   0  0  0  0  0  0  0  0  0  0  0  0
   -8.1065  -17.9446   11.2195 O   0  0  0  0  0  0  0  0  0  0  0  0
  -11.6862  -18.2793   11.5240 C   0  0  0  0  0  0  0  0  0  0  0  0
  -12.3618  -18.0301   12.5019 O   0  0  0  0  0  0  0  0  0  0  0  0
  -12.2374  -18.9065   10.4654 O   0  0  0  0  0  0  0  0  0  0  0  0
  -13.6821  -19.0523   10.4659 C   0  0  0  0  0  0  0  0  0  0  0  0
  -14.1683  -19.3156    9.0388 C   0  0  0  0  0  0  0  0  0  0  0  0
  1  2  1  0
  1  9  1  0
  2  3  2  0
  2  4  1  0
  4  5  2  0
  4  8  1  0
  5  6  1  0
  6  7  1  0
  7  8  2  0
  9 10  2  0
  9 13  1  0
 10 11  1  0
 11 12  2  0
 11 14  1  0
 12 13  1  0
 14 15  2  0
 14 16  1  0
 16 17  1  0
 17 18  1  0
M  END
>  <Gold.Gold.Protein.RotatedWaterAtoms>  (13) 


>  <Gold.Id.Protein>  (13) 


>  <Gold.PLP.Chemscore.CHOScore>  (13) 
1.4049

>  <Gold.PLP.Chemscore.Hbond>  (13) 
1.5512

>  <Gold.PLP.Chemscore.Internal.Correction>  (13) 
0.0938

>  <Gold.PLP.Chemscore.Metal>  (13) 
0.0000

>  <Gold.PLP.Fitness>  (13) 
49.3471

>  <Gold.PLP.PLP>  (13) 
-42.8505

>  <Gold.PLP.ligand.clash>  (13) 
0.0000

>  <Gold.PLP.ligand.torsion>  (13) 
1.2328

>  <Gold.PLP.part.buried>  (13) 
-8.8301

>  <Gold.PLP.part.hbond>  (13) 
-3.2316

>  <Gold.PLP.part.metal>  (13) 
0.0000

>  <Gold.PLP.part.nonpolar>  (13) 
-31.1187

>  <Gold.PLP.part.repulsive>  (13) 
0.8489

>  <Gold.Protein.RotatedAtoms>  (13) 


>  <Gold.Protein.RotatedTorsions>  (13) 


>  <Gold.Protein.RotatedWaterAtoms>  (13) 


>  <Gold.Version>  (13) 
5.3.0

>  <PLP.Chemscore.CHOScore>  (13) 


>  <PLP.Chemscore.Hbond>  (13) 


>  <PLP.Chemscore.Internal.Correction>  (13) 


>  <PLP.Chemscore.Metal>  (13) 


>  <PLP.Fitness>  (13) 


>  <PLP.PLP>  (13) 


>  <PLP.ligand.clash>  (13) 


>  <PLP.ligand.torsion>  (13) 


>  <PLP.part.buried>  (13) 


>  <PLP.part.hbond>  (13) 


>  <PLP.part.metal>  (13) 


>  <PLP.part.nonpolar>  (13) 


>  <PLP.part.repulsive>  (13) 


>  <Version>  (13) 


$$$$
3013|Compound_1830|Compounds_3D_F|sdf|537|dock3|1
     RDKit          3D

 18 19  0  0  0  0  0  0  0  0999 V2000
   -7.7623  -15.9125   11.4745 N   0  0  0  0  0  0  0  0  0  0  0  0
   -8.1687  -14.6998   11.9003 C   0  0  0  0  0  0  0  0  0  0  0  0
   -9.3474  -14.4964   12.1201 O   0  0  0  0  0  0  0  0  0  0  0  0
   -7.1841  -13.6211   12.0991 C   0  0  0  0  0  0  0  0  0  0  0  0
   -7.4252  -12.2836   12.0261 C   0  0  0  0  0  0  0  0  0  0  0  0
   -6.2605  -11.6620   12.2719 O   0  0  0  0  0  0  0  0  0  0  0  0
   -5.3250  -12.5973   12.4910 C   0  0  0  0  0  0  0  0  0  0  0  0
   -5.8649  -13.7749   12.3954 N   0  0  0  0  0  0  0  0  0  0  0  0
   -8.6877  -16.9252   11.2827 C   0  0  0  0  0  0  0  0  0  0  0  0
   -9.9042  -16.9405   11.7590 N   0  0  0  0  0  0  0  0  0  0  0  0
  -10.5066  -18.0956   11.3605 C   0  0  0  0  0  0  0  0  0  0  0  0
   -9.5997  -18.7870   10.6180 C   0  0  0  0  0  0  0  0  0  0  0  0
   -8.4784  -18.0465   10.5739 O   0  0  0  0  0  0  0  0  0  0  0  0
  -11.8821  -18.5182   11.6743 C   0  0  0  0  0  0  0  0  0  0  0  0
  -12.5280  -17.9161   12.5081 O   0  0  0  0  0  0  0  0  0  0  0  0
  -12.4246  -19.5734   11.0338 O   0  0  0  0  0  0  0  0  0  0  0  0
  -13.8638  -19.5582   10.8423 C   0  0  0  0  0  0  0  0  0  0  0  0
  -14.1929  -18.8930    9.5038 C   0  0  0  0  0  0  0  0  0  0  0  0
  1  2  1  0
  1  9  1  0
  2  3  2  0
  2  4  1  0
  4  5  2  0
  4  8  1  0
  5  6  1  0
  6  7  1  0
  7  8  2  0
  9 10  2  0
  9 13  1  0
 10 11  1  0
 11 12  2  0
 11 14  1  0
 12 13  1  0
 14 15  2  0
 14 16  1  0
 16 17  1  0
 17 18  1  0
M  END
>  <Gold.Gold.Protein.RotatedWaterAtoms>  (14) 


>  <Gold.Id.Protein>  (14) 


>  <Gold.PLP.Chemscore.CHOScore>  (14) 
0.9961

>  <Gold.PLP.Chemscore.Hbond>  (14) 
1.8153

>  <Gold.PLP.Chemscore.Internal.Correction>  (14) 
0.0768

>  <Gold.PLP.Chemscore.Metal>  (14) 
0.0000

>  <Gold.PLP.Fitness>  (14) 
48.0286

>  <Gold.PLP.PLP>  (14) 
-41.5001

>  <Gold.PLP.ligand.clash>  (14) 
0.0000

>  <Gold.PLP.ligand.torsion>  (14) 
0.9912

>  <Gold.PLP.part.buried>  (14) 
-9.2284

>  <Gold.PLP.part.hbond>  (14) 
-3.4470

>  <Gold.PLP.part.metal>  (14) 
0.0000

>  <Gold.PLP.part.nonpolar>  (14) 
-29.9208

>  <Gold.PLP.part.repulsive>  (14) 
0.8079

>  <Gold.Protein.RotatedAtoms>  (14) 


>  <Gold.Protein.RotatedTorsions>  (14) 


>  <Gold.Protein.RotatedWaterAtoms>  (14) 


>  <Gold.Version>  (14) 
5.3.0

>  <PLP.Chemscore.CHOScore>  (14) 


>  <PLP.Chemscore.Hbond>  (14) 


>  <PLP.Chemscore.Internal.Correction>  (14) 


>  <PLP.Chemscore.Metal>  (14) 


>  <PLP.Fitness>  (14) 


>  <PLP.PLP>  (14) 


>  <PLP.ligand.clash>  (14) 


>  <PLP.ligand.torsion>  (14) 


>  <PLP.part.buried>  (14) 


>  <PLP.part.hbond>  (14) 


>  <PLP.part.metal>  (14) 


>  <PLP.part.nonpolar>  (14) 


>  <PLP.part.repulsive>  (14) 


>  <Version>  (14) 


$$$$
3014|Compound_1865|Compounds_3D_F|sdf|538|dock1|1
     RDKit          3D

 24 26  0  0  0  0  0  0  0  0999 V2000
   -6.1678  -18.1686   11.3596 O   0  0  0  0  0  0  0  0  0  0  0  0
   -6.1580  -16.8357   11.6072 C   0  0  0  0  0  0  0  0  0  0  0  0
   -7.3382  -16.0939   11.5191 C   0  0  0  0  0  0  0  0  0  0  0  0
   -8.6203  -16.7266   11.1590 C   0  0  0  0  0  0  0  0  0  0  0  0
   -9.6643  -16.2681   11.5813 O   0  0  0  0  0  0  0  0  0  0  0  0
   -8.6343  -17.8135   10.3624 N   0  0  0  0  0  0  0  0  0  0  0  0
   -9.8391  -18.4081   10.0239 C   0  0  0  0  0  0  0  0  0  0  0  0
   -9.9941  -19.5372    9.3771 N   0  0  0  0  0  0  0  0  0  0  0  0
  -11.2503  -19.7803    9.2399 N   0  0  0  0  0  0  0  0  0  0  0  0
  -11.9412  -18.8232    9.7891 C   0  0  0  0  0  0  0  0  0  0  0  0
  -11.0686  -17.9349   10.3016 O   0  0  0  0  0  0  0  0  0  0  0  0
  -13.4442  -18.7292    9.8448 C   0  0  0  0  0  0  0  0  0  0  0  0
  -13.8564  -18.6464   11.1792 F   0  0  0  0  0  0  0  0  0  0  0  0
  -13.8659  -17.5874    9.1547 F   0  0  0  0  0  0  0  0  0  0  0  0
  -14.0050  -19.8661    9.2532 F   0  0  0  0  0  0  0  0  0  0  0  0
   -7.2476  -14.6610   11.8009 C   0  0  0  0  0  0  0  0  0  0  0  0
   -5.9854  -14.1160   12.1416 C   0  0  0  0  0  0  0  0  0  0  0  0
   -4.9101  -14.9078   12.2001 N   0  0  0  0  0  0  0  0  0  0  0  0
   -4.9675  -16.1901   11.9590 C   0  0  0  0  0  0  0  0  0  0  0  0
   -3.7005  -17.0017   12.0495 C   0  0  0  0  0  0  0  0  0  0  0  0
   -5.8897  -12.7397   12.4141 C   0  0  0  0  0  0  0  0  0  0  0  0
   -7.0026  -11.9589   12.3466 C   0  0  0  0  0  0  0  0  0  0  0  0
   -8.2408  -12.4990   12.0100 C   0  0  0  0  0  0  0  0  0  0  0  0
   -8.3716  -13.8299   11.7403 C   0  0  0  0  0  0  0  0  0  0  0  0
  1  2  1  0
  2  3  2  0
  2 19  1  0
  3  4  1  0
  3 16  1  0
  4  5  2  0
  4  6  1  0
  6  7  1  0
  7  8  2  0
  7 11  1  0
  8  9  1  0
  9 10  2  0
 10 11  1  0
 10 12  1  0
 12 13  1  0
 12 14  1  0
 12 15  1  0
 16 17  2  0
 16 24  1  0
 17 18  1  0
 17 21  1  0
 18 19  2  0
 19 20  1  0
 21 22  2  0
 22 23  1  0
 23 24  2  0
M  END
>  <Gold.Gold.Protein.RotatedWaterAtoms>  (15) 


>  <Gold.Id.Protein>  (15) 


>  <Gold.PLP.Chemscore.CHOScore>  (15) 
0.0000

>  <Gold.PLP.Chemscore.Hbond>  (15) 
1.0000

>  <Gold.PLP.Chemscore.Internal.Correction>  (15) 
0.6674

>  <Gold.PLP.Chemscore.Metal>  (15) 
0.0000

>  <Gold.PLP.Fitness>  (15) 
65.3117

>  <Gold.PLP.PLP>  (15) 
-62.4262

>  <Gold.PLP.ligand.clash>  (15) 
0.0000

>  <Gold.PLP.ligand.torsion>  (15) 
0.3909

>  <Gold.PLP.part.buried>  (15) 
-12.4121

>  <Gold.PLP.part.hbond>  (15) 
-1.9033

>  <Gold.PLP.part.metal>  (15) 
0.0000

>  <Gold.PLP.part.nonpolar>  (15) 
-49.5247

>  <Gold.PLP.part.repulsive>  (15) 
0.2928

>  <Gold.Protein.RotatedAtoms>  (15) 


>  <Gold.Protein.RotatedTorsions>  (15) 


>  <Gold.Protein.RotatedWaterAtoms>  (15) 


>  <Gold.Version>  (15) 
5.3.0

>  <PLP.Chemscore.CHOScore>  (15) 


>  <PLP.Chemscore.Hbond>  (15) 


>  <PLP.Chemscore.Internal.Correction>  (15) 


>  <PLP.Chemscore.Metal>  (15) 


>  <PLP.Fitness>  (15) 


>  <PLP.PLP>  (15) 


>  <PLP.ligand.clash>  (15) 


>  <PLP.ligand.torsion>  (15) 


>  <PLP.part.buried>  (15) 


>  <PLP.part.hbond>  (15) 


>  <PLP.part.metal>  (15) 


>  <PLP.part.nonpolar>  (15) 


>  <PLP.part.repulsive>  (15) 


>  <Version>  (15) 


$$$$
3015|Compound_1865|Compounds_3D_F|sdf|538|dock2|1
     RDKit          3D

 24 26  0  0  0  0  0  0  0  0999 V2000
   -6.4076  -18.4734   11.0259 O   0  0  0  0  0  0  0  0  0  0  0  0
   -6.3797  -17.1593   11.3580 C   0  0  0  0  0  0  0  0  0  0  0  0
   -7.5573  -16.4081   11.3618 C   0  0  0  0  0  0  0  0  0  0  0  0
   -8.8561  -17.0107   11.0099 C   0  0  0  0  0  0  0  0  0  0  0  0
   -9.6965  -16.3491   10.4317 O   0  0  0  0  0  0  0  0  0  0  0  0
   -9.1112  -18.2947   11.3299 N   0  0  0  0  0  0  0  0  0  0  0  0
  -10.3316  -18.8611   10.9991 C   0  0  0  0  0  0  0  0  0  0  0  0
  -10.6916  -20.1049   11.2007 N   0  0  0  0  0  0  0  0  0  0  0  0
  -11.8914  -20.2764   10.7683 N   0  0  0  0  0  0  0  0  0  0  0  0
  -12.3409  -19.1577   10.2770 C   0  0  0  0  0  0  0  0  0  0  0  0
  -11.3698  -18.2347   10.4138 O   0  0  0  0  0  0  0  0  0  0  0  0
  -13.7020  -18.9352    9.6698 C   0  0  0  0  0  0  0  0  0  0  0  0
  -13.8871  -19.8226    8.6040 F   0  0  0  0  0  0  0  0  0  0  0  0
  -14.6868  -19.1579   10.6384 F   0  0  0  0  0  0  0  0  0  0  0  0
  -13.7952  -17.6198    9.2028 F   0  0  0  0  0  0  0  0  0  0  0  0
   -7.4467  -14.9968   11.7316 C   0  0  0  0  0  0  0  0  0  0  0  0
   -6.1692  -14.4804   12.0594 C   0  0  0  0  0  0  0  0  0  0  0  0
   -5.0977  -15.2790   12.0267 N   0  0  0  0  0  0  0  0  0  0  0  0
   -5.1727  -16.5428   11.7061 C   0  0  0  0  0  0  0  0  0  0  0  0
   -3.9087  -17.3641   11.6969 C   0  0  0  0  0  0  0  0  0  0  0  0
   -6.0541  -13.1249   12.4160 C   0  0  0  0  0  0  0  0  0  0  0  0
   -7.1634  -12.3366   12.4403 C   0  0  0  0  0  0  0  0  0  0  0  0
   -8.4169  -12.8485   12.1160 C   0  0  0  0  0  0  0  0  0  0  0  0
   -8.5665  -14.1586   11.7664 C   0  0  0  0  0  0  0  0  0  0  0  0
  1  2  1  0
  2  3  2  0
  2 19  1  0
  3  4  1  0
  3 16  1  0
  4  5  2  0
  4  6  1  0
  6  7  1  0
  7  8  2  0
  7 11  1  0
  8  9  1  0
  9 10  2  0
 10 11  1  0
 10 12  1  0
 12 13  1  0
 12 14  1  0
 12 15  1  0
 16 17  2  0
 16 24  1  0
 17 18  1  0
 17 21  1  0
 18 19  2  0
 19 20  1  0
 21 22  2  0
 22 23  1  0
 23 24  2  0
M  END
>  <Gold.Gold.Protein.RotatedWaterAtoms>  (16) 


>  <Gold.Id.Protein>  (16) 


>  <Gold.PLP.Chemscore.CHOScore>  (16) 
0.0000

>  <Gold.PLP.Chemscore.Hbond>  (16) 
0.7638

>  <Gold.PLP.Chemscore.Internal.Correction>  (16) 
0.6662

>  <Gold.PLP.Chemscore.Metal>  (16) 
0.0000

>  <Gold.PLP.Fitness>  (16) 
61.6597

>  <Gold.PLP.PLP>  (16) 
-59.6800

>  <Gold.PLP.ligand.clash>  (16) 
0.0000

>  <Gold.PLP.ligand.torsion>  (16) 
0.4889

>  <Gold.PLP.part.buried>  (16) 
-9.8019

>  <Gold.PLP.part.hbond>  (16) 
-1.5659

>  <Gold.PLP.part.metal>  (16) 
0.0000

>  <Gold.PLP.part.nonpolar>  (16) 
-48.2690

>  <Gold.PLP.part.repulsive>  (16) 
0.2675

>  <Gold.Protein.RotatedAtoms>  (16) 


>  <Gold.Protein.RotatedTorsions>  (16) 


>  <Gold.Protein.RotatedWaterAtoms>  (16) 


>  <Gold.Version>  (16) 
5.3.0

>  <PLP.Chemscore.CHOScore>  (16) 


>  <PLP.Chemscore.Hbond>  (16) 


>  <PLP.Chemscore.Internal.Correction>  (16) 


>  <PLP.Chemscore.Metal>  (16) 


>  <PLP.Fitness>  (16) 


>  <PLP.PLP>  (16) 


>  <PLP.ligand.clash>  (16) 


>  <PLP.ligand.torsion>  (16) 


>  <PLP.part.buried>  (16) 


>  <PLP.part.hbond>  (16) 


>  <PLP.part.metal>  (16) 


>  <PLP.part.nonpolar>  (16) 


>  <PLP.part.repulsive>  (16) 


>  <Version>  (16) 


$$$$
3016|Compound_1865|Compounds_3D_F|sdf|538|dock3|1
     RDKit          3D

 24 26  0  0  0  0  0  0  0  0999 V2000
   -6.6319  -18.5031   11.0037 O   0  0  0  0  0  0  0  0  0  0  0  0
   -6.5262  -17.1923   11.3333 C   0  0  0  0  0  0  0  0  0  0  0  0
   -7.6665  -16.3885   11.4015 C   0  0  0  0  0  0  0  0  0  0  0  0
   -9.0086  -16.9308   11.1217 C   0  0  0  0  0  0  0  0  0  0  0  0
   -9.6268  -16.5506   10.1461 O   0  0  0  0  0  0  0  0  0  0  0  0
   -9.5500  -17.8475   11.9480 N   0  0  0  0  0  0  0  0  0  0  0  0
  -10.8112  -18.3573   11.6852 C   0  0  0  0  0  0  0  0  0  0  0  0
  -11.5983  -18.9635   12.5397 N   0  0  0  0  0  0  0  0  0  0  0  0
  -12.6896  -19.3017   11.9476 N   0  0  0  0  0  0  0  0  0  0  0  0
  -12.6422  -18.9281   10.7013 C   0  0  0  0  0  0  0  0  0  0  0  0
  -11.4575  -18.3188   10.5047 O   0  0  0  0  0  0  0  0  0  0  0  0
  -13.7193  -19.1358    9.6681 C   0  0  0  0  0  0  0  0  0  0  0  0
  -13.2467  -19.9934    8.6687 F   0  0  0  0  0  0  0  0  0  0  0  0
  -14.8449  -19.7032   10.2755 F   0  0  0  0  0  0  0  0  0  0  0  0
  -14.0655  -17.9048    9.1009 F   0  0  0  0  0  0  0  0  0  0  0  0
   -7.4718  -14.9845   11.7641 C   0  0  0  0  0  0  0  0  0  0  0  0
   -6.1561  -14.5272   12.0210 C   0  0  0  0  0  0  0  0  0  0  0  0
   -5.1254  -15.3735   11.9298 N   0  0  0  0  0  0  0  0  0  0  0  0
   -5.2752  -16.6319   11.6142 C   0  0  0  0  0  0  0  0  0  0  0  0
   -4.0521  -17.5097   11.5359 C   0  0  0  0  0  0  0  0  0  0  0  0
   -5.9602  -13.1791   12.3702 C   0  0  0  0  0  0  0  0  0  0  0  0
   -7.0297  -12.3413   12.4551 C   0  0  0  0  0  0  0  0  0  0  0  0
   -8.3209  -12.7952   12.2004 C   0  0  0  0  0  0  0  0  0  0  0  0
   -8.5488  -14.0964   11.8601 C   0  0  0  0  0  0  0  0  0  0  0  0
  1  2  1  0
  2  3  2  0
  2 19  1  0
  3  4  1  0
  3 16  1  0
  4  5  2  0
  4  6  1  0
  6  7  1  0
  7  8  2  0
  7 11  1  0
  8  9  1  0
  9 10  2  0
 10 11  1  0
 10 12  1  0
 12 13  1  0
 12 14  1  0
 12 15  1  0
 16 17  2  0
 16 24  1  0
 17 18  1  0
 17 21  1  0
 18 19  2  0
 19 20  1  0
 21 22  2  0
 22 23  1  0
 23 24  2  0
M  END
>  <Gold.Gold.Protein.RotatedWaterAtoms>  (17) 


>  <Gold.Id.Protein>  (17) 


>  <Gold.PLP.Chemscore.CHOScore>  (17) 
0.0000

>  <Gold.PLP.Chemscore.Hbond>  (17) 
1.3588

>  <Gold.PLP.Chemscore.Internal.Correction>  (17) 
0.6662

>  <Gold.PLP.Chemscore.Metal>  (17) 
0.0000

>  <Gold.PLP.Fitness>  (17) 
62.7185

>  <Gold.PLP.PLP>  (17) 
-60.7979

>  <Gold.PLP.ligand.clash>  (17) 
0.0000

>  <Gold.PLP.ligand.torsion>  (17) 
1.4110

>  <Gold.PLP.part.buried>  (17) 
-9.5612

>  <Gold.PLP.part.hbond>  (17) 
-2.6799

>  <Gold.PLP.part.metal>  (17) 
0.0000

>  <Gold.PLP.part.nonpolar>  (17) 
-48.8523

>  <Gold.PLP.part.repulsive>  (17) 
0.4012

>  <Gold.Protein.RotatedAtoms>  (17) 


>  <Gold.Protein.RotatedTorsions>  (17) 


>  <Gold.Protein.RotatedWaterAtoms>  (17) 


>  <Gold.Version>  (17) 
5.3.0

>  <PLP.Chemscore.CHOScore>  (17) 


>  <PLP.Chemscore.Hbond>  (17) 


>  <PLP.Chemscore.Internal.Correction>  (17) 


>  <PLP.Chemscore.Metal>  (17) 


>  <PLP.Fitness>  (17) 


>  <PLP.PLP>  (17) 


>  <PLP.ligand.clash>  (17) 


>  <PLP.ligand.torsion>  (17) 


>  <PLP.part.buried>  (17) 


>  <PLP.part.hbond>  (17) 


>  <PLP.part.metal>  (17) 


>  <PLP.part.nonpolar>  (17) 


>  <PLP.part.repulsive>  (17) 


>  <Version>  (17) 


$$$$
3017|Compound_1866|Compounds_3D_F|sdf|539|dock1|1
     RDKit          3D

 23 25  0  0  0  0  0  0  0  0999 V2000
   -4.1847  -17.3683   12.0500 O   0  0  0  0  0  0  0  0  0  0  0  0
   -5.3000  -16.6021   11.9640 C   0  0  0  0  0  0  0  0  0  0  0  0
   -5.2092  -15.3208   12.2294 N   0  0  0  0  0  0  0  0  0  0  0  0
   -6.2626  -14.5007   12.1662 C   0  0  0  0  0  0  0  0  0  0  0  0
   -6.1351  -13.1313   12.4559 C   0  0  0  0  0  0  0  0  0  0  0  0
   -7.2269  -12.3211   12.3817 C   0  0  0  0  0  0  0  0  0  0  0  0
   -8.4738  -12.8255   12.0228 C   0  0  0  0  0  0  0  0  0  0  0  0
   -8.6348  -14.1490   11.7350 C   0  0  0  0  0  0  0  0  0  0  0  0
   -7.5332  -15.0088   11.8009 C   0  0  0  0  0  0  0  0  0  0  0  0
   -7.6574  -16.4361   11.5002 C   0  0  0  0  0  0  0  0  0  0  0  0
   -6.5062  -17.2067   11.5887 C   0  0  0  0  0  0  0  0  0  0  0  0
   -8.9537  -17.0317   11.1133 C   0  0  0  0  0  0  0  0  0  0  0  0
   -9.7105  -16.4186   10.3853 O   0  0  0  0  0  0  0  0  0  0  0  0
   -9.2973  -18.2527   11.5682 N   0  0  0  0  0  0  0  0  0  0  0  0
  -10.5129  -18.8109   11.2050 C   0  0  0  0  0  0  0  0  0  0  0  0
  -10.9449  -20.0054   11.5230 N   0  0  0  0  0  0  0  0  0  0  0  0
  -12.1128  -20.1857   11.0152 N   0  0  0  0  0  0  0  0  0  0  0  0
  -12.4693  -19.1203   10.3570 C   0  0  0  0  0  0  0  0  0  0  0  0
  -11.4711  -18.2237   10.4649 O   0  0  0  0  0  0  0  0  0  0  0  0
  -13.7661  -18.9251    9.6149 C   0  0  0  0  0  0  0  0  0  0  0  0
  -13.7967  -17.6418    9.0591 F   0  0  0  0  0  0  0  0  0  0  0  0
  -13.8679  -19.8774    8.5951 F   0  0  0  0  0  0  0  0  0  0  0  0
  -14.8382  -19.0749   10.5011 F   0  0  0  0  0  0  0  0  0  0  0  0
  1  2  1  0
  2  3  2  0
  2 11  1  0
  3  4  1  0
  4  5  2  0
  4  9  1  0
  5  6  1  0
  6  7  2  0
  7  8  1  0
  8  9  2  0
  9 10  1  0
 10 11  2  0
 10 12  1  0
 12 13  2  0
 12 14  1  0
 14 15  1  0
 15 16  2  0
 15 19  1  0
 16 17  1  0
 17 18  2  0
 18 19  1  0
 18 20  1  0
 20 21  1  0
 20 22  1  0
 20 23  1  0
M  END
>  <Gold.Gold.Protein.RotatedWaterAtoms>  (18) 


>  <Gold.Id.Protein>  (18) 


>  <Gold.PLP.Chemscore.CHOScore>  (18) 
0.0000

>  <Gold.PLP.Chemscore.Hbond>  (18) 
0.8288

>  <Gold.PLP.Chemscore.Internal.Correction>  (18) 
0.6585

>  <Gold.PLP.Chemscore.Metal>  (18) 
0.0000

>  <Gold.PLP.Fitness>  (18) 
60.2557

>  <Gold.PLP.PLP>  (18) 
-58.3095

>  <Gold.PLP.ligand.clash>  (18) 
0.0000

>  <Gold.PLP.ligand.torsion>  (18) 
0.5993

>  <Gold.PLP.part.buried>  (18) 
-10.3309

>  <Gold.PLP.part.hbond>  (18) 
-1.7734

>  <Gold.PLP.part.metal>  (18) 
0.0000

>  <Gold.PLP.part.nonpolar>  (18) 
-46.3975

>  <Gold.PLP.part.repulsive>  (18) 
0.2853

>  <Gold.Protein.RotatedAtoms>  (18) 


>  <Gold.Protein.RotatedTorsions>  (18) 


>  <Gold.Protein.RotatedWaterAtoms>  (18) 


>  <Gold.Version>  (18) 
5.3.0

>  <PLP.Chemscore.CHOScore>  (18) 


>  <PLP.Chemscore.Hbond>  (18) 


>  <PLP.Chemscore.Internal.Correction>  (18) 


>  <PLP.Chemscore.Metal>  (18) 


>  <PLP.Fitness>  (18) 


>  <PLP.PLP>  (18) 


>  <PLP.ligand.clash>  (18) 


>  <PLP.ligand.torsion>  (18) 


>  <PLP.part.buried>  (18) 


>  <PLP.part.hbond>  (18) 


>  <PLP.part.metal>  (18) 


>  <PLP.part.nonpolar>  (18) 


>  <PLP.part.repulsive>  (18) 


>  <Version>  (18) 


$$$$
3018|Compound_1866|Compounds_3D_F|sdf|539|dock2|1
     RDKit          3D

 23 25  0  0  0  0  0  0  0  0999 V2000
   -4.1414  -15.7075   12.1948 O   0  0  0  0  0  0  0  0  0  0  0  0
   -5.3194  -15.0404   12.1214 C   0  0  0  0  0  0  0  0  0  0  0  0
   -5.3027  -13.7294   12.0831 N   0  0  0  0  0  0  0  0  0  0  0  0
   -6.4213  -13.0016   12.0101 C   0  0  0  0  0  0  0  0  0  0  0  0
   -6.3725  -11.5974   11.9703 C   0  0  0  0  0  0  0  0  0  0  0  0
   -7.5295  -10.8836   11.8949 C   0  0  0  0  0  0  0  0  0  0  0  0
   -8.7666  -11.5210   11.8565 C   0  0  0  0  0  0  0  0  0  0  0  0
   -8.8520  -12.8818   11.8934 C   0  0  0  0  0  0  0  0  0  0  0  0
   -7.6822  -13.6451   11.9701 C   0  0  0  0  0  0  0  0  0  0  0  0
   -7.7243  -15.1079   12.0114 C   0  0  0  0  0  0  0  0  0  0  0  0
   -6.5101  -15.7768   12.0826 C   0  0  0  0  0  0  0  0  0  0  0  0
   -9.0062  -15.8428   11.9737 C   0  0  0  0  0  0  0  0  0  0  0  0
   -9.9965  -15.3634   12.4914 O   0  0  0  0  0  0  0  0  0  0  0  0
   -9.0770  -17.0441   11.3673 N   0  0  0  0  0  0  0  0  0  0  0  0
  -10.2794  -17.7329   11.3321 C   0  0  0  0  0  0  0  0  0  0  0  0
  -10.8569  -18.3391   12.3389 N   0  0  0  0  0  0  0  0  0  0  0  0
  -11.9584  -18.8710   11.9414 N   0  0  0  0  0  0  0  0  0  0  0  0
  -12.1257  -18.6271   10.6733 C   0  0  0  0  0  0  0  0  0  0  0  0
  -11.0732  -17.8979   10.2581 O   0  0  0  0  0  0  0  0  0  0  0  0
  -13.2891  -19.0749    9.8268 C   0  0  0  0  0  0  0  0  0  0  0  0
  -13.8235  -17.9741    9.1490 F   0  0  0  0  0  0  0  0  0  0  0  0
  -12.8520  -20.0264    8.8991 F   0  0  0  0  0  0  0  0  0  0  0  0
  -14.2722  -19.6402   10.6461 F   0  0  0  0  0  0  0  0  0  0  0  0
  1  2  1  0
  2  3  2  0
  2 11  1  0
  3  4  1  0
  4  5  2  0
  4  9  1  0
  5  6  1  0
  6  7  2  0
  7  8  1  0
  8  9  2  0
  9 10  1  0
 10 11  2  0
 10 12  1  0
 12 13  2  0
 12 14  1  0
 14 15  1  0
 15 16  2  0
 15 19  1  0
 16 17  1  0
 17 18  2  0
 18 19  1  0
 18 20  1  0
 20 21  1  0
 20 22  1  0
 20 23  1  0
M  END
>  <Gold.Gold.Protein.RotatedWaterAtoms>  (19) 


>  <Gold.Id.Protein>  (19) 


>  <Gold.PLP.Chemscore.CHOScore>  (19) 
0.0000

>  <Gold.PLP.Chemscore.Hbond>  (19) 
2.9913

>  <Gold.PLP.Chemscore.Internal.Correction>  (19) 
0.6561

>  <Gold.PLP.Chemscore.Metal>  (19) 
0.0000

>  <Gold.PLP.Fitness>  (19) 
64.4777

>  <Gold.PLP.PLP>  (19) 
-57.5151

>  <Gold.PLP.ligand.clash>  (19) 
0.0000

>  <Gold.PLP.ligand.torsion>  (19) 
1.3336

>  <Gold.PLP.part.buried>  (19) 
-11.0689

>  <Gold.PLP.part.hbond>  (19) 
-4.4490

>  <Gold.PLP.part.metal>  (19) 
0.0000

>  <Gold.PLP.part.nonpolar>  (19) 
-45.9383

>  <Gold.PLP.part.repulsive>  (19) 
1.4628

>  <Gold.Protein.RotatedAtoms>  (19) 


>  <Gold.Protein.RotatedTorsions>  (19) 


>  <Gold.Protein.RotatedWaterAtoms>  (19) 


>  <Gold.Version>  (19) 
5.3.0

>  <PLP.Chemscore.CHOScore>  (19) 


>  <PLP.Chemscore.Hbond>  (19) 


>  <PLP.Chemscore.Internal.Correction>  (19) 


>  <PLP.Chemscore.Metal>  (19) 


>  <PLP.Fitness>  (19) 


>  <PLP.PLP>  (19) 


>  <PLP.ligand.clash>  (19) 


>  <PLP.ligand.torsion>  (19) 


>  <PLP.part.buried>  (19) 


>  <PLP.part.hbond>  (19) 


>  <PLP.part.metal>  (19) 


>  <PLP.part.nonpolar>  (19) 


>  <PLP.part.repulsive>  (19) 


>  <Version>  (19) 


$$$$
3019|Compound_1866|Compounds_3D_F|sdf|539|dock3|1
     RDKit          3D

 23 25  0  0  0  0  0  0  0  0999 V2000
   -4.1678  -17.7820   11.6875 O   0  0  0  0  0  0  0  0  0  0  0  0
   -5.1818  -16.8862   11.7745 C   0  0  0  0  0  0  0  0  0  0  0  0
   -4.8979  -15.6328   12.0364 N   0  0  0  0  0  0  0  0  0  0  0  0
   -5.8414  -14.6916   12.1372 C   0  0  0  0  0  0  0  0  0  0  0  0
   -5.5071  -13.3557   12.4188 C   0  0  0  0  0  0  0  0  0  0  0  0
   -6.4910  -12.4194   12.5143 C   0  0  0  0  0  0  0  0  0  0  0  0
   -7.8289  -12.7614   12.3380 C   0  0  0  0  0  0  0  0  0  0  0  0
   -8.1901  -14.0478   12.0637 C   0  0  0  0  0  0  0  0  0  0  0  0
   -7.2038  -15.0342   11.9581 C   0  0  0  0  0  0  0  0  0  0  0  0
   -7.5435  -16.4277   11.6647 C   0  0  0  0  0  0  0  0  0  0  0  0
   -6.4944  -17.3322   11.5749 C   0  0  0  0  0  0  0  0  0  0  0  0
   -8.9451  -16.8535   11.4670 C   0  0  0  0  0  0  0  0  0  0  0  0
   -9.7678  -16.0605   11.0512 O   0  0  0  0  0  0  0  0  0  0  0  0
   -9.3112  -18.1194   11.7486 N   0  0  0  0  0  0  0  0  0  0  0  0
  -10.6257  -18.5184   11.5629 C   0  0  0  0  0  0  0  0  0  0  0  0
  -11.4564  -18.9130   12.4949 N   0  0  0  0  0  0  0  0  0  0  0  0
  -12.5893  -19.2052   11.9605 N   0  0  0  0  0  0  0  0  0  0  0  0
  -12.5260  -19.0101   10.6746 C   0  0  0  0  0  0  0  0  0  0  0  0
  -11.2870  -18.5663   10.3920 O   0  0  0  0  0  0  0  0  0  0  0  0
  -13.6395  -19.2347    9.6846 C   0  0  0  0  0  0  0  0  0  0  0  0
  -13.8944  -18.0465    8.9919 F   0  0  0  0  0  0  0  0  0  0  0  0
  -13.2634  -20.2315    8.7778 F   0  0  0  0  0  0  0  0  0  0  0  0
  -14.7949  -19.6350   10.3643 F   0  0  0  0  0  0  0  0  0  0  0  0
  1  2  1  0
  2  3  2  0
  2 11  1  0
  3  4  1  0
  4  5  2  0
  4  9  1  0
  5  6  1  0
  6  7  2  0
  7  8  1  0
  8  9  2  0
  9 10  1  0
 10 11  2  0
 10 12  1  0
 12 13  2  0
 12 14  1  0
 14 15  1  0
 15 16  2  0
 15 19  1  0
 16 17  1  0
 17 18  2  0
 18 19  1  0
 18 20  1  0
 20 21  1  0
 20 22  1  0
 20 23  1  0
M  END
>  <Gold.Gold.Protein.RotatedWaterAtoms>  (20) 


>  <Gold.Id.Protein>  (20) 


>  <Gold.PLP.Chemscore.CHOScore>  (20) 
0.0000

>  <Gold.PLP.Chemscore.Hbond>  (20) 
1.2480

>  <Gold.PLP.Chemscore.Internal.Correction>  (20) 
0.6561

>  <Gold.PLP.Chemscore.Metal>  (20) 
0.0000

>  <Gold.PLP.Fitness>  (20) 
62.3783

>  <Gold.PLP.PLP>  (20) 
-59.8741

>  <Gold.PLP.ligand.clash>  (20) 
0.0000

>  <Gold.PLP.ligand.torsion>  (20) 
0.9480

>  <Gold.PLP.part.buried>  (20) 
-11.8490

>  <Gold.PLP.part.hbond>  (20) 
-0.8833

>  <Gold.PLP.part.metal>  (20) 
0.0000

>  <Gold.PLP.part.nonpolar>  (20) 
-47.9317

>  <Gold.PLP.part.repulsive>  (20) 
0.3853

>  <Gold.Protein.RotatedAtoms>  (20) 


>  <Gold.Protein.RotatedTorsions>  (20) 


>  <Gold.Protein.RotatedWaterAtoms>  (20) 


>  <Gold.Version>  (20) 
5.3.0

>  <PLP.Chemscore.CHOScore>  (20) 


>  <PLP.Chemscore.Hbond>  (20) 


>  <PLP.Chemscore.Internal.Correction>  (20) 


>  <PLP.Chemscore.Metal>  (20) 


>  <PLP.Fitness>  (20) 


>  <PLP.PLP>  (20) 


>  <PLP.ligand.clash>  (20) 


>  <PLP.ligand.torsion>  (20) 


>  <PLP.part.buried>  (20) 


>  <PLP.part.hbond>  (20) 


>  <PLP.part.metal>  (20) 


>  <PLP.part.nonpolar>  (20) 


>  <PLP.part.repulsive>  (20) 


>  <Version>  (20) 


$$$$
3020|Compound_1869|Compounds_3D_F|sdf|540|dock1|1
     RDKit          3D

 22 24  0  0  0  0  0  0  0  0999 V2000
   -8.7286  -17.7780   10.4224 N   0  0  0  0  0  0  0  0  0  0  0  0
   -8.7798  -16.7591   11.3036 C   0  0  0  0  0  0  0  0  0  0  0  0
   -9.8494  -16.3992   11.7546 O   0  0  0  0  0  0  0  0  0  0  0  0
   -7.5346  -16.0801   11.7205 C   0  0  0  0  0  0  0  0  0  0  0  0
   -6.3819  -16.8028   12.0013 C   0  0  0  0  0  0  0  0  0  0  0  0
   -5.2266  -16.1299   12.3908 C   0  0  0  0  0  0  0  0  0  0  0  0
   -5.1893  -14.8248   12.5020 N   0  0  0  0  0  0  0  0  0  0  0  0
   -6.2592  -14.0661   12.2486 C   0  0  0  0  0  0  0  0  0  0  0  0
   -6.1987  -12.6661   12.3750 C   0  0  0  0  0  0  0  0  0  0  0  0
   -7.3040  -11.9166   12.1109 C   0  0  0  0  0  0  0  0  0  0  0  0
   -8.4989  -12.5130   11.7153 C   0  0  0  0  0  0  0  0  0  0  0  0
   -8.5942  -13.8661   11.5833 C   0  0  0  0  0  0  0  0  0  0  0  0
   -7.4750  -14.6680   11.8414 C   0  0  0  0  0  0  0  0  0  0  0  0
   -9.8970  -18.4111   10.0267 C   0  0  0  0  0  0  0  0  0  0  0  0
   -9.9833  -19.5419    9.3724 N   0  0  0  0  0  0  0  0  0  0  0  0
  -11.2230  -19.8261    9.1755 N   0  0  0  0  0  0  0  0  0  0  0  0
  -11.9699  -18.8941    9.6925 C   0  0  0  0  0  0  0  0  0  0  0  0
  -11.1520  -17.9798   10.2480 O   0  0  0  0  0  0  0  0  0  0  0  0
  -13.4759  -18.8495    9.6785 C   0  0  0  0  0  0  0  0  0  0  0  0
  -13.9668  -19.9197    8.9231 F   0  0  0  0  0  0  0  0  0  0  0  0
  -13.9581  -18.9424   10.9886 F   0  0  0  0  0  0  0  0  0  0  0  0
  -13.9016  -17.6444    9.1094 F   0  0  0  0  0  0  0  0  0  0  0  0
  1  2  1  0
  1 14  1  0
  2  3  2  0
  2  4  1  0
  4  5  2  0
  4 13  1  0
  5  6  1  0
  6  7  2  0
  7  8  1  0
  8  9  1  0
  8 13  2  0
  9 10  2  0
 10 11  1  0
 11 12  2  0
 12 13  1  0
 14 15  2  0
 14 18  1  0
 15 16  1  0
 16 17  2  0
 17 18  1  0
 17 19  1  0
 19 20  1  0
 19 21  1  0
 19 22  1  0
M  END
>  <Gold.Gold.Protein.RotatedWaterAtoms>  (21) 


>  <Gold.Id.Protein>  (21) 


>  <Gold.PLP.Chemscore.CHOScore>  (21) 
0.0000

>  <Gold.PLP.Chemscore.Hbond>  (21) 
1.0000

>  <Gold.PLP.Chemscore.Internal.Correction>  (21) 
0.9478

>  <Gold.PLP.Chemscore.Metal>  (21) 
0.0000

>  <Gold.PLP.Fitness>  (21) 
63.6710

>  <Gold.PLP.PLP>  (21) 
-61.2774

>  <Gold.PLP.ligand.clash>  (21) 
0.0000

>  <Gold.PLP.ligand.torsion>  (21) 
0.7771

>  <Gold.PLP.part.buried>  (21) 
-11.4482

>  <Gold.PLP.part.hbond>  (21) 
-1.9305

>  <Gold.PLP.part.metal>  (21) 
0.0000

>  <Gold.PLP.part.nonpolar>  (21) 
-48.8190

>  <Gold.PLP.part.repulsive>  (21) 
0.2734

>  <Gold.Protein.RotatedAtoms>  (21) 


>  <Gold.Protein.RotatedTorsions>  (21) 


>  <Gold.Protein.RotatedWaterAtoms>  (21) 


>  <Gold.Version>  (21) 
5.3.0

>  <PLP.Chemscore.CHOScore>  (21) 


>  <PLP.Chemscore.Hbond>  (21) 


>  <PLP.Chemscore.Internal.Correction>  (21) 


>  <PLP.Chemscore.Metal>  (21) 


>  <PLP.Fitness>  (21) 


>  <PLP.PLP>  (21) 


>  <PLP.ligand.clash>  (21) 


>  <PLP.ligand.torsion>  (21) 


>  <PLP.part.buried>  (21) 


>  <PLP.part.hbond>  (21) 


>  <PLP.part.metal>  (21) 


>  <PLP.part.nonpolar>  (21) 


>  <PLP.part.repulsive>  (21) 


>  <Version>  (21) 


$$$$
3021|Compound_1869|Compounds_3D_F|sdf|540|dock2|1
     RDKit          3D

 22 24  0  0  0  0  0  0  0  0999 V2000
   -8.6864  -17.7359   10.2418 N   0  0  0  0  0  0  0  0  0  0  0  0
   -8.7124  -16.8193   11.2299 C   0  0  0  0  0  0  0  0  0  0  0  0
   -9.7650  -16.5342   11.7663 O   0  0  0  0  0  0  0  0  0  0  0  0
   -7.4604  -16.1613   11.6600 C   0  0  0  0  0  0  0  0  0  0  0  0
   -6.3085  -16.8988   11.9032 C   0  0  0  0  0  0  0  0  0  0  0  0
   -5.1466  -16.2455   12.3066 C   0  0  0  0  0  0  0  0  0  0  0  0
   -5.1025  -14.9455   12.4655 N   0  0  0  0  0  0  0  0  0  0  0  0
   -6.1711  -14.1736   12.2502 C   0  0  0  0  0  0  0  0  0  0  0  0
   -6.1032  -12.7795   12.4277 C   0  0  0  0  0  0  0  0  0  0  0  0
   -7.2075  -12.0161   12.2016 C   0  0  0  0  0  0  0  0  0  0  0  0
   -8.4086  -12.5925   11.7954 C   0  0  0  0  0  0  0  0  0  0  0  0
   -8.5112  -13.9394   11.6144 C   0  0  0  0  0  0  0  0  0  0  0  0
   -7.3934  -14.7549   11.8324 C   0  0  0  0  0  0  0  0  0  0  0  0
   -9.8614  -18.3489    9.8342 C   0  0  0  0  0  0  0  0  0  0  0  0
   -9.9590  -19.4264    9.0969 N   0  0  0  0  0  0  0  0  0  0  0  0
  -11.2019  -19.7076    8.9167 N   0  0  0  0  0  0  0  0  0  0  0  0
  -11.9398  -18.8264    9.5272 C   0  0  0  0  0  0  0  0  0  0  0  0
  -11.1123  -17.9492   10.1267 O   0  0  0  0  0  0  0  0  0  0  0  0
  -13.4458  -18.7967    9.5631 C   0  0  0  0  0  0  0  0  0  0  0  0
  -13.8825  -18.9055   10.8876 F   0  0  0  0  0  0  0  0  0  0  0  0
  -13.9024  -17.5918    9.0181 F   0  0  0  0  0  0  0  0  0  0  0  0
  -13.9512  -19.8670    8.8171 F   0  0  0  0  0  0  0  0  0  0  0  0
  1  2  1  0
  1 14  1  0
  2  3  2  0
  2  4  1  0
  4  5  2  0
  4 13  1  0
  5  6  1  0
  6  7  2  0
  7  8  1  0
  8  9  1  0
  8 13  2  0
  9 10  2  0
 10 11  1  0
 11 12  2  0
 12 13  1  0
 14 15  2  0
 14 18  1  0
 15 16  1  0
 16 17  2  0
 17 18  1  0
 17 19  1  0
 19 20  1  0
 19 21  1  0
 19 22  1  0
M  END
>  <Gold.Gold.Protein.RotatedWaterAtoms>  (22) 


>  <Gold.Id.Protein>  (22) 


>  <Gold.PLP.Chemscore.CHOScore>  (22) 
0.0000

>  <Gold.PLP.Chemscore.Hbond>  (22) 
1.0000

>  <Gold.PLP.Chemscore.Internal.Correction>  (22) 
0.9478

>  <Gold.PLP.Chemscore.Metal>  (22) 
0.0000

>  <Gold.PLP.Fitness>  (22) 
63.4348

>  <Gold.PLP.PLP>  (22) 
-61.1927

>  <Gold.PLP.ligand.clash>  (22) 
0.0000

>  <Gold.PLP.ligand.torsion>  (22) 
0.8528

>  <Gold.PLP.part.buried>  (22) 
-9.5269

>  <Gold.PLP.part.hbond>  (22) 
-3.6232

>  <Gold.PLP.part.metal>  (22) 
0.0000

>  <Gold.PLP.part.nonpolar>  (22) 
-48.5888

>  <Gold.PLP.part.repulsive>  (22) 
0.2769

>  <Gold.Protein.RotatedAtoms>  (22) 


>  <Gold.Protein.RotatedTorsions>  (22) 


>  <Gold.Protein.RotatedWaterAtoms>  (22) 


>  <Gold.Version>  (22) 
5.3.0

>  <PLP.Chemscore.CHOScore>  (22) 


>  <PLP.Chemscore.Hbond>  (22) 


>  <PLP.Chemscore.Internal.Correction>  (22) 


>  <PLP.Chemscore.Metal>  (22) 


>  <PLP.Fitness>  (22) 


>  <PLP.PLP>  (22) 


>  <PLP.ligand.clash>  (22) 


>  <PLP.ligand.torsion>  (22) 


>  <PLP.part.buried>  (22) 


>  <PLP.part.hbond>  (22) 


>  <PLP.part.metal>  (22) 


>  <PLP.part.nonpolar>  (22) 


>  <PLP.part.repulsive>  (22) 


>  <Version>  (22) 


$$$$
3022|Compound_1869|Compounds_3D_F|sdf|540|dock3|1
     RDKit          3D

 22 24  0  0  0  0  0  0  0  0999 V2000
   -9.2205  -17.5921   11.3724 N   0  0  0  0  0  0  0  0  0  0  0  0
   -9.0121  -16.4145   11.9944 C   0  0  0  0  0  0  0  0  0  0  0  0
   -9.9471  -15.8126   12.4848 O   0  0  0  0  0  0  0  0  0  0  0  0
   -7.6459  -15.8559   12.0794 C   0  0  0  0  0  0  0  0  0  0  0  0
   -6.5370  -16.6848   12.1936 C   0  0  0  0  0  0  0  0  0  0  0  0
   -5.2647  -16.1238   12.2707 C   0  0  0  0  0  0  0  0  0  0  0  0
   -5.0762  -14.8275   12.2384 N   0  0  0  0  0  0  0  0  0  0  0  0
   -6.0952  -13.9707   12.1304 C   0  0  0  0  0  0  0  0  0  0  0  0
   -5.8715  -12.5819   12.0985 C   0  0  0  0  0  0  0  0  0  0  0  0
   -6.9283  -11.7308   11.9883 C   0  0  0  0  0  0  0  0  0  0  0  0
   -8.2327  -12.2118   11.9054 C   0  0  0  0  0  0  0  0  0  0  0  0
   -8.4869  -13.5505   11.9341 C   0  0  0  0  0  0  0  0  0  0  0  0
   -7.4231  -14.4555   12.0411 C   0  0  0  0  0  0  0  0  0  0  0  0
  -10.5026  -18.1133   11.2873 C   0  0  0  0  0  0  0  0  0  0  0  0
  -11.2356  -18.5371   12.2859 N   0  0  0  0  0  0  0  0  0  0  0  0
  -12.3677  -18.9529   11.8364 N   0  0  0  0  0  0  0  0  0  0  0  0
  -12.4000  -18.8118   10.5431 C   0  0  0  0  0  0  0  0  0  0  0  0
  -11.2256  -18.2729   10.1639 O   0  0  0  0  0  0  0  0  0  0  0  0
  -13.5457  -19.1779    9.6355 C   0  0  0  0  0  0  0  0  0  0  0  0
  -13.9359  -18.0531    8.9009 F   0  0  0  0  0  0  0  0  0  0  0  0
  -13.1421  -20.1912    8.7593 F   0  0  0  0  0  0  0  0  0  0  0  0
  -14.6242  -19.6285   10.4045 F   0  0  0  0  0  0  0  0  0  0  0  0
  1  2  1  0
  1 14  1  0
  2  3  2  0
  2  4  1  0
  4  5  2  0
  4 13  1  0
  5  6  1  0
  6  7  2  0
  7  8  1  0
  8  9  1  0
  8 13  2  0
  9 10  2  0
 10 11  1  0
 11 12  2  0
 12 13  1  0
 14 15  2  0
 14 18  1  0
 15 16  1  0
 16 17  2  0
 17 18  1  0
 17 19  1  0
 19 20  1  0
 19 21  1  0
 19 22  1  0
M  END
>  <Gold.Gold.Protein.RotatedWaterAtoms>  (23) 


>  <Gold.Id.Protein>  (23) 


>  <Gold.PLP.Chemscore.CHOScore>  (23) 
0.0000

>  <Gold.PLP.Chemscore.Hbond>  (23) 
2.0000

>  <Gold.PLP.Chemscore.Internal.Correction>  (23) 
0.9478

>  <Gold.PLP.Chemscore.Metal>  (23) 
0.0000

>  <Gold.PLP.Fitness>  (23) 
65.5315

>  <Gold.PLP.PLP>  (23) 
-60.9123

>  <Gold.PLP.ligand.clash>  (23) 
0.0648

>  <Gold.PLP.ligand.torsion>  (23) 
1.1320

>  <Gold.PLP.part.buried>  (23) 
-10.4432

>  <Gold.PLP.part.hbond>  (23) 
-2.4789

>  <Gold.PLP.part.metal>  (23) 
0.0000

>  <Gold.PLP.part.nonpolar>  (23) 
-49.1142

>  <Gold.PLP.part.repulsive>  (23) 
1.1648

>  <Gold.Protein.RotatedAtoms>  (23) 


>  <Gold.Protein.RotatedTorsions>  (23) 


>  <Gold.Protein.RotatedWaterAtoms>  (23) 


>  <Gold.Version>  (23) 
5.3.0

>  <PLP.Chemscore.CHOScore>  (23) 


>  <PLP.Chemscore.Hbond>  (23) 


>  <PLP.Chemscore.Internal.Correction>  (23) 


>  <PLP.Chemscore.Metal>  (23) 


>  <PLP.Fitness>  (23) 


>  <PLP.PLP>  (23) 


>  <PLP.ligand.clash>  (23) 


>  <PLP.ligand.torsion>  (23) 


>  <PLP.part.buried>  (23) 


>  <PLP.part.hbond>  (23) 


>  <PLP.part.metal>  (23) 


>  <PLP.part.nonpolar>  (23) 


>  <PLP.part.repulsive>  (23) 


>  <Version>  (23) 


$$$$
3023|Compound_1872|Compounds_3D_F|sdf|541|dock1|1
     RDKit          3D

 28 31  0  0  0  0  0  0  0  0999 V2000
   -7.9728  -15.1678   12.1263 N   0  0  0  0  0  0  0  0  0  0  0  0
   -8.4301  -14.0115   11.6062 C   0  0  0  0  0  0  0  0  0  0  0  0
   -9.4552  -14.0032   10.9531 O   0  0  0  0  0  0  0  0  0  0  0  0
   -7.6845  -12.7523   11.8300 C   0  0  0  0  0  0  0  0  0  0  0  0
   -8.2592  -11.5816   11.5765 N   0  0  0  0  0  0  0  0  0  0  0  0
   -7.6461  -10.4687   11.7570 N   0  0  0  0  0  0  0  0  0  0  0  0
   -6.4047  -10.4112   12.2074 C   0  0  0  0  0  0  0  0  0  0  0  0
   -5.7181  -11.5793   12.5015 C   0  0  0  0  0  0  0  0  0  0  0  0
   -6.3740  -12.7876   12.3132 C   0  0  0  0  0  0  0  0  0  0  0  0
   -8.6664  -16.3457   11.9115 C   0  0  0  0  0  0  0  0  0  0  0  0
   -8.1633  -17.4272   11.3730 N   0  0  0  0  0  0  0  0  0  0  0  0
   -9.1171  -18.3936   11.3133 C   0  0  0  0  0  0  0  0  0  0  0  0
  -10.2909  -17.8504   11.8587 C   0  0  0  0  0  0  0  0  0  0  0  0
   -9.9768  -16.5548   12.2351 N   0  0  0  0  0  0  0  0  0  0  0  0
  -11.4443  -18.6180   11.9285 C   0  0  0  0  0  0  0  0  0  0  0  0
  -11.4331  -19.9192   11.4597 C   0  0  0  0  0  0  0  0  0  0  0  0
  -12.5630  -20.6720   11.5281 O   0  0  0  0  0  0  0  0  0  0  0  0
  -13.2957  -20.8286   10.3943 C   0  0  0  0  0  0  0  0  0  0  0  0
  -13.6281  -22.1018    9.9512 C   0  0  0  0  0  0  0  0  0  0  0  0
  -13.1092  -23.4970   10.8443 Cl  0  0  0  0  0  0  0  0  0  0  0  0
  -14.3728  -22.2570    8.7963 C   0  0  0  0  0  0  0  0  0  0  0  0
  -14.7901  -23.8478    8.2395 Cl  0  0  0  0  0  0  0  0  0  0  0  0
  -14.7876  -21.1449    8.0842 C   0  0  0  0  0  0  0  0  0  0  0  0
  -14.4564  -19.8768    8.5244 C   0  0  0  0  0  0  0  0  0  0  0  0
  -13.7171  -19.7160    9.6806 C   0  0  0  0  0  0  0  0  0  0  0  0
  -10.2708  -20.4622   10.9175 C   0  0  0  0  0  0  0  0  0  0  0  0
  -10.2732  -22.0956   10.3323 Cl  0  0  0  0  0  0  0  0  0  0  0  0
   -9.1199  -19.7097   10.8423 C   0  0  0  0  0  0  0  0  0  0  0  0
  1  2  1  0
  1 10  1  0
  2  3  2  0
  2  4  1  0
  4  5  2  0
  4  9  1  0
  5  6  1  0
  6  7  2  0
  7  8  1  0
  8  9  2  0
 10 11  2  0
 10 14  1  0
 11 12  1  0
 12 13  2  0
 12 28  1  0
 13 14  1  0
 13 15  1  0
 15 16  2  0
 16 17  1  0
 16 26  1  0
 17 18  1  0
 18 19  2  0
 18 25  1  0
 19 20  1  0
 19 21  1  0
 21 22  1  0
 21 23  2  0
 23 24  1  0
 24 25  2  0
 26 27  1  0
 26 28  2  0
M  END
>  <Gold.Gold.Protein.RotatedWaterAtoms>  (24) 


>  <Gold.Id.Protein>  (24) 


>  <Gold.PLP.Chemscore.CHOScore>  (24) 
0.4935

>  <Gold.PLP.Chemscore.Hbond>  (24) 
0.6080

>  <Gold.PLP.Chemscore.Internal.Correction>  (24) 
0.0454

>  <Gold.PLP.Chemscore.Metal>  (24) 
0.0000

>  <Gold.PLP.Fitness>  (24) 
61.0873

>  <Gold.PLP.PLP>  (24) 
-59.5522

>  <Gold.PLP.ligand.clash>  (24) 
0.0000

>  <Gold.PLP.ligand.torsion>  (24) 
0.9074

>  <Gold.PLP.part.buried>  (24) 
-8.1905

>  <Gold.PLP.part.hbond>  (24) 
-2.0000

>  <Gold.PLP.part.metal>  (24) 
0.0000

>  <Gold.PLP.part.nonpolar>  (24) 
-50.3944

>  <Gold.PLP.part.repulsive>  (24) 
1.6143

>  <Gold.Protein.RotatedAtoms>  (24) 


>  <Gold.Protein.RotatedTorsions>  (24) 


>  <Gold.Protein.RotatedWaterAtoms>  (24) 


>  <Gold.Version>  (24) 
5.3.0

>  <PLP.Chemscore.CHOScore>  (24) 


>  <PLP.Chemscore.Hbond>  (24) 


>  <PLP.Chemscore.Internal.Correction>  (24) 


>  <PLP.Chemscore.Metal>  (24) 


>  <PLP.Fitness>  (24) 


>  <PLP.PLP>  (24) 


>  <PLP.ligand.clash>  (24) 


>  <PLP.ligand.torsion>  (24) 


>  <PLP.part.buried>  (24) 


>  <PLP.part.hbond>  (24) 


>  <PLP.part.metal>  (24) 


>  <PLP.part.nonpolar>  (24) 


>  <PLP.part.repulsive>  (24) 


>  <Version>  (24) 


$$$$
3024|Compound_1872|Compounds_3D_F|sdf|541|dock2|1
     RDKit          3D

 28 31  0  0  0  0  0  0  0  0999 V2000
   -7.8238  -14.8667   11.9704 N   0  0  0  0  0  0  0  0  0  0  0  0
   -8.4695  -13.7051   11.7460 C   0  0  0  0  0  0  0  0  0  0  0  0
   -9.6402  -13.7148   11.4191 O   0  0  0  0  0  0  0  0  0  0  0  0
   -7.7537  -12.4181   11.8974 C   0  0  0  0  0  0  0  0  0  0  0  0
   -6.4907  -12.4006   12.3090 N   0  0  0  0  0  0  0  0  0  0  0  0
   -5.8365  -11.3060   12.4532 N   0  0  0  0  0  0  0  0  0  0  0  0
   -6.3729  -10.1243   12.2016 C   0  0  0  0  0  0  0  0  0  0  0  0
   -7.6865  -10.0365   11.7669 C   0  0  0  0  0  0  0  0  0  0  0  0
   -8.4008  -11.2151   11.6042 C   0  0  0  0  0  0  0  0  0  0  0  0
   -8.4913  -16.0696   11.8225 C   0  0  0  0  0  0  0  0  0  0  0  0
   -7.9503  -17.1823   11.3959 N   0  0  0  0  0  0  0  0  0  0  0  0
   -8.8874  -18.1665   11.3740 C   0  0  0  0  0  0  0  0  0  0  0  0
  -10.0915  -17.6011   11.8223 C   0  0  0  0  0  0  0  0  0  0  0  0
   -9.8117  -16.2742   12.1053 N   0  0  0  0  0  0  0  0  0  0  0  0
  -11.2364  -18.3800   11.9046 C   0  0  0  0  0  0  0  0  0  0  0  0
  -11.1869  -19.7145   11.5441 C   0  0  0  0  0  0  0  0  0  0  0  0
  -12.3085  -20.4784   11.6249 O   0  0  0  0  0  0  0  0  0  0  0  0
  -13.0675  -20.6188   10.5063 C   0  0  0  0  0  0  0  0  0  0  0  0
  -13.4899  -21.8794   10.1061 C   0  0  0  0  0  0  0  0  0  0  0  0
  -13.0505  -23.2795   11.0335 Cl  0  0  0  0  0  0  0  0  0  0  0  0
  -14.2611  -22.0182    8.9665 C   0  0  0  0  0  0  0  0  0  0  0  0
  -14.7910  -23.5933    8.4634 Cl  0  0  0  0  0  0  0  0  0  0  0  0
  -14.6126  -20.9022    8.2271 C   0  0  0  0  0  0  0  0  0  0  0  0
  -14.1917  -19.6467    8.6246 C   0  0  0  0  0  0  0  0  0  0  0  0
  -13.4255  -19.5019    9.7653 C   0  0  0  0  0  0  0  0  0  0  0  0
   -9.9946  -20.2796   11.0985 C   0  0  0  0  0  0  0  0  0  0  0  0
   -9.9491  -21.9547   10.6484 Cl  0  0  0  0  0  0  0  0  0  0  0  0
   -8.8516  -19.5162   11.0119 C   0  0  0  0  0  0  0  0  0  0  0  0
  1  2  1  0
  1 10  1  0
  2  3  2  0
  2  4  1  0
  4  5  2  0
  4  9  1  0
  5  6  1  0
  6  7  2  0
  7  8  1  0
  8  9  2  0
 10 11  2  0
 10 14  1  0
 11 12  1  0
 12 13  2  0
 12 28  1  0
 13 14  1  0
 13 15  1  0
 15 16  2  0
 16 17  1  0
 16 26  1  0
 17 18  1  0
 18 19  2  0
 18 25  1  0
 19 20  1  0
 19 21  1  0
 21 22  1  0
 21 23  2  0
 23 24  1  0
 24 25  2  0
 26 27  1  0
 26 28  2  0
M  END
>  <Gold.Gold.Protein.RotatedWaterAtoms>  (25) 


>  <Gold.Id.Protein>  (25) 


>  <Gold.PLP.Chemscore.CHOScore>  (25) 
0.6149

>  <Gold.PLP.Chemscore.Hbond>  (25) 
0.6080

>  <Gold.PLP.Chemscore.Internal.Correction>  (25) 
0.0454

>  <Gold.PLP.Chemscore.Metal>  (25) 
0.0000

>  <Gold.PLP.Fitness>  (25) 
63.5920

>  <Gold.PLP.PLP>  (25) 
-61.3045

>  <Gold.PLP.ligand.clash>  (25) 
0.0000

>  <Gold.PLP.ligand.torsion>  (25) 
0.7133

>  <Gold.PLP.part.buried>  (25) 
-8.3188

>  <Gold.PLP.part.hbond>  (25) 
-2.0000

>  <Gold.PLP.part.metal>  (25) 
0.0000

>  <Gold.PLP.part.nonpolar>  (25) 
-52.6988

>  <Gold.PLP.part.repulsive>  (25) 
0.9853

>  <Gold.Protein.RotatedAtoms>  (25) 


>  <Gold.Protein.RotatedTorsions>  (25) 


>  <Gold.Protein.RotatedWaterAtoms>  (25) 


>  <Gold.Version>  (25) 
5.3.0

>  <PLP.Chemscore.CHOScore>  (25) 


>  <PLP.Chemscore.Hbond>  (25) 


>  <PLP.Chemscore.Internal.Correction>  (25) 


>  <PLP.Chemscore.Metal>  (25) 


>  <PLP.Fitness>  (25) 


>  <PLP.PLP>  (25) 


>  <PLP.ligand.clash>  (25) 


>  <PLP.ligand.torsion>  (25) 


>  <PLP.part.buried>  (25) 


>  <PLP.part.hbond>  (25) 


>  <PLP.part.metal>  (25) 


>  <PLP.part.nonpolar>  (25) 


>  <PLP.part.repulsive>  (25) 


>  <Version>  (25) 


$$$$
3025|Compound_1872|Compounds_3D_F|sdf|541|dock3|1
     RDKit          3D

 28 31  0  0  0  0  0  0  0  0999 V2000
   -7.7242  -15.0839   11.1510 N   0  0  0  0  0  0  0  0  0  0  0  0
   -8.3690  -14.0280   11.6858 C   0  0  0  0  0  0  0  0  0  0  0  0
   -9.5409  -14.1248   11.9935 O   0  0  0  0  0  0  0  0  0  0  0  0
   -7.6507  -12.7512   11.8984 C   0  0  0  0  0  0  0  0  0  0  0  0
   -6.4054  -12.7543   12.3613 N   0  0  0  0  0  0  0  0  0  0  0  0
   -5.7497  -11.6690   12.5594 N   0  0  0  0  0  0  0  0  0  0  0  0
   -6.2668  -10.4771   12.3159 C   0  0  0  0  0  0  0  0  0  0  0  0
   -7.5608  -10.3677   11.8304 C   0  0  0  0  0  0  0  0  0  0  0  0
   -8.2765  -11.5359   11.6093 C   0  0  0  0  0  0  0  0  0  0  0  0
   -8.3976  -16.2752   10.9464 C   0  0  0  0  0  0  0  0  0  0  0  0
   -9.5943  -16.3831   10.4276 N   0  0  0  0  0  0  0  0  0  0  0  0
   -9.9506  -17.6934   10.3705 C   0  0  0  0  0  0  0  0  0  0  0  0
   -8.8829  -18.4358   10.8991 C   0  0  0  0  0  0  0  0  0  0  0  0
   -7.9102  -17.5143   11.2506 N   0  0  0  0  0  0  0  0  0  0  0  0
   -8.9660  -19.8187   10.9694 C   0  0  0  0  0  0  0  0  0  0  0  0
  -10.1035  -20.4626   10.5169 C   0  0  0  0  0  0  0  0  0  0  0  0
  -10.1855  -21.8179   10.5853 O   0  0  0  0  0  0  0  0  0  0  0  0
   -9.8745  -22.4177   11.7645 C   0  0  0  0  0  0  0  0  0  0  0  0
  -10.6129  -22.1335   12.9054 C   0  0  0  0  0  0  0  0  0  0  0  0
  -11.9355  -21.0117   12.8290 Cl  0  0  0  0  0  0  0  0  0  0  0  0
  -10.2925  -22.7451   14.1037 C   0  0  0  0  0  0  0  0  0  0  0  0
  -11.2139  -22.3918   15.5324 Cl  0  0  0  0  0  0  0  0  0  0  0  0
   -9.2387  -23.6403   14.1652 C   0  0  0  0  0  0  0  0  0  0  0  0
   -8.5025  -23.9233   13.0296 C   0  0  0  0  0  0  0  0  0  0  0  0
   -8.8217  -23.3190   11.8287 C   0  0  0  0  0  0  0  0  0  0  0  0
  -11.1654  -19.7301    9.9921 C   0  0  0  0  0  0  0  0  0  0  0  0
  -12.5862  -20.5524    9.4299 Cl  0  0  0  0  0  0  0  0  0  0  0  0
  -11.0947  -18.3568    9.9177 C   0  0  0  0  0  0  0  0  0  0  0  0
  1  2  1  0
  1 10  1  0
  2  3  2  0
  2  4  1  0
  4  5  2  0
  4  9  1  0
  5  6  1  0
  6  7  2  0
  7  8  1  0
  8  9  2  0
 10 11  2  0
 10 14  1  0
 11 12  1  0
 12 13  2  0
 12 28  1  0
 13 14  1  0
 13 15  1  0
 15 16  2  0
 16 17  1  0
 16 26  1  0
 17 18  1  0
 18 19  2  0
 18 25  1  0
 19 20  1  0
 19 21  1  0
 21 22  1  0
 21 23  2  0
 23 24  1  0
 24 25  2  0
 26 27  1  0
 26 28  2  0
M  END
>  <Gold.Gold.Protein.RotatedWaterAtoms>  (26) 


>  <Gold.Id.Protein>  (26) 


>  <Gold.PLP.Chemscore.CHOScore>  (26) 
0.9266

>  <Gold.PLP.Chemscore.Hbond>  (26) 
0.9280

>  <Gold.PLP.Chemscore.Internal.Correction>  (26) 
0.0454

>  <Gold.PLP.Chemscore.Metal>  (26) 
0.0000

>  <Gold.PLP.Fitness>  (26) 
59.5959

>  <Gold.PLP.PLP>  (26) 
-56.2539

>  <Gold.PLP.ligand.clash>  (26) 
0.0000

>  <Gold.PLP.ligand.torsion>  (26) 
1.1336

>  <Gold.PLP.part.buried>  (26) 
-9.7973

>  <Gold.PLP.part.hbond>  (26) 
-2.0000

>  <Gold.PLP.part.metal>  (26) 
0.0000

>  <Gold.PLP.part.nonpolar>  (26) 
-46.8770

>  <Gold.PLP.part.repulsive>  (26) 
0.8074

>  <Gold.Protein.RotatedAtoms>  (26) 


>  <Gold.Protein.RotatedTorsions>  (26) 


>  <Gold.Protein.RotatedWaterAtoms>  (26) 


>  <Gold.Version>  (26) 
5.3.0

>  <PLP.Chemscore.CHOScore>  (26) 


>  <PLP.Chemscore.Hbond>  (26) 


>  <PLP.Chemscore.Internal.Correction>  (26) 


>  <PLP.Chemscore.Metal>  (26) 


>  <PLP.Fitness>  (26) 


>  <PLP.PLP>  (26) 


>  <PLP.ligand.clash>  (26) 


>  <PLP.ligand.torsion>  (26) 


>  <PLP.part.buried>  (26) 


>  <PLP.part.hbond>  (26) 


>  <PLP.part.metal>  (26) 


>  <PLP.part.nonpolar>  (26) 


>  <PLP.part.repulsive>  (26) 


>  <Version>  (26) 


$$$$
3026|Compound_1872|Compounds_3D_F|sdf|541|dock4|1
     RDKit          3D

 28 31  0  0  0  0  0  0  0  0999 V2000
   -7.9716  -15.5550   11.6578 N   0  0  0  0  0  0  0  0  0  0  0  0
   -8.5041  -14.3577   11.9732 C   0  0  0  0  0  0  0  0  0  0  0  0
   -9.6919  -14.2662   12.2144 O   0  0  0  0  0  0  0  0  0  0  0  0
   -7.6431  -13.1545   12.0259 C   0  0  0  0  0  0  0  0  0  0  0  0
   -6.3389  -13.2757   12.2481 N   0  0  0  0  0  0  0  0  0  0  0  0
   -5.5597  -12.2573   12.3016 N   0  0  0  0  0  0  0  0  0  0  0  0
   -6.0001  -11.0217   12.1384 C   0  0  0  0  0  0  0  0  0  0  0  0
   -7.3464  -10.7902   11.9014 C   0  0  0  0  0  0  0  0  0  0  0  0
   -8.1963  -11.8854   11.8380 C   0  0  0  0  0  0  0  0  0  0  0  0
   -8.7778  -16.6782   11.6023 C   0  0  0  0  0  0  0  0  0  0  0  0
   -8.3459  -17.9099   11.5070 N   0  0  0  0  0  0  0  0  0  0  0  0
   -9.4032  -18.7634   11.4776 C   0  0  0  0  0  0  0  0  0  0  0  0
  -10.5671  -17.9831   11.5605 C   0  0  0  0  0  0  0  0  0  0  0  0
  -10.1429  -16.6670   11.6445 N   0  0  0  0  0  0  0  0  0  0  0  0
  -11.8136  -18.5918   11.5515 C   0  0  0  0  0  0  0  0  0  0  0  0
  -11.9051  -19.9690   11.4610 C   0  0  0  0  0  0  0  0  0  0  0  0
  -13.1263  -20.5661   11.4524 O   0  0  0  0  0  0  0  0  0  0  0  0
  -13.6524  -20.9267   10.2523 C   0  0  0  0  0  0  0  0  0  0  0  0
  -13.8759  -22.2666    9.9652 C   0  0  0  0  0  0  0  0  0  0  0  0
  -13.4844  -23.4849   11.1383 Cl  0  0  0  0  0  0  0  0  0  0  0  0
  -14.4102  -22.6296    8.7424 C   0  0  0  0  0  0  0  0  0  0  0  0
  -14.6908  -24.3044    8.3803 Cl  0  0  0  0  0  0  0  0  0  0  0  0
  -14.7234  -21.6587    7.8070 C   0  0  0  0  0  0  0  0  0  0  0  0
  -14.5005  -20.3242    8.0919 C   0  0  0  0  0  0  0  0  0  0  0  0
  -13.9718  -19.9558    9.3141 C   0  0  0  0  0  0  0  0  0  0  0  0
  -10.7530  -20.7472   11.3782 C   0  0  0  0  0  0  0  0  0  0  0  0
  -10.8844  -22.4735   11.2637 Cl  0  0  0  0  0  0  0  0  0  0  0  0
   -9.5101  -20.1541   11.3857 C   0  0  0  0  0  0  0  0  0  0  0  0
  1  2  1  0
  1 10  1  0
  2  3  2  0
  2  4  1  0
  4  5  2  0
  4  9  1  0
  5  6  1  0
  6  7  2  0
  7  8  1  0
  8  9  2  0
 10 11  2  0
 10 14  1  0
 11 12  1  0
 12 13  2  0
 12 28  1  0
 13 14  1  0
 13 15  1  0
 15 16  2  0
 16 17  1  0
 16 26  1  0
 17 18  1  0
 18 19  2  0
 18 25  1  0
 19 20  1  0
 19 21  1  0
 21 22  1  0
 21 23  2  0
 23 24  1  0
 24 25  2  0
 26 27  1  0
 26 28  2  0
M  END
>  <Gold.Gold.Protein.RotatedWaterAtoms>  (27) 


>  <Gold.Id.Protein>  (27) 


>  <Gold.PLP.Chemscore.CHOScore>  (27) 
0.0000

>  <Gold.PLP.Chemscore.Hbond>  (27) 
0.7680

>  <Gold.PLP.Chemscore.Internal.Correction>  (27) 
0.0454

>  <Gold.PLP.Chemscore.Metal>  (27) 
0.0000

>  <Gold.PLP.Fitness>  (27) 
59.3695

>  <Gold.PLP.PLP>  (27) 
-58.2400

>  <Gold.PLP.ligand.clash>  (27) 
0.0000

>  <Gold.PLP.ligand.torsion>  (27) 
0.6100

>  <Gold.PLP.part.buried>  (27) 
-7.7128

>  <Gold.PLP.part.hbond>  (27) 
-1.3690

>  <Gold.PLP.part.metal>  (27) 
0.0000

>  <Gold.PLP.part.nonpolar>  (27) 
-50.2987

>  <Gold.PLP.part.repulsive>  (27) 
0.8928

>  <Gold.Protein.RotatedAtoms>  (27) 


>  <Gold.Protein.RotatedTorsions>  (27) 


>  <Gold.Protein.RotatedWaterAtoms>  (27) 


>  <Gold.Version>  (27) 
5.3.0

>  <PLP.Chemscore.CHOScore>  (27) 


>  <PLP.Chemscore.Hbond>  (27) 


>  <PLP.Chemscore.Internal.Correction>  (27) 


>  <PLP.Chemscore.Metal>  (27) 


>  <PLP.Fitness>  (27) 


>  <PLP.PLP>  (27) 


>  <PLP.ligand.clash>  (27) 


>  <PLP.ligand.torsion>  (27) 


>  <PLP.part.buried>  (27) 


>  <PLP.part.hbond>  (27) 


>  <PLP.part.metal>  (27) 


>  <PLP.part.nonpolar>  (27) 


>  <PLP.part.repulsive>  (27) 


>  <Version>  (27) 


$$$$
3027|Compound_1872|Compounds_3D_F|sdf|541|dock5|1
     RDKit          3D

 28 31  0  0  0  0  0  0  0  0999 V2000
   -7.7711  -15.4192   11.6281 N   0  0  0  0  0  0  0  0  0  0  0  0
   -8.3474  -14.2548   11.9866 C   0  0  0  0  0  0  0  0  0  0  0  0
   -9.5356  -14.2185   12.2403 O   0  0  0  0  0  0  0  0  0  0  0  0
   -7.5342  -13.0207   12.0716 C   0  0  0  0  0  0  0  0  0  0  0  0
   -8.0814  -11.8402   11.8032 N   0  0  0  0  0  0  0  0  0  0  0  0
   -7.4099  -10.7484   11.8651 N   0  0  0  0  0  0  0  0  0  0  0  0
   -6.1315  -10.7235   12.2005 C   0  0  0  0  0  0  0  0  0  0  0  0
   -5.4691  -11.9044   12.4993 C   0  0  0  0  0  0  0  0  0  0  0  0
   -6.1879  -13.0899   12.4388 C   0  0  0  0  0  0  0  0  0  0  0  0
   -8.5328  -16.5712   11.5424 C   0  0  0  0  0  0  0  0  0  0  0  0
   -8.0623  -17.7671   11.2951 N   0  0  0  0  0  0  0  0  0  0  0  0
   -9.0822  -18.6654   11.2831 C   0  0  0  0  0  0  0  0  0  0  0  0
  -10.2636  -17.9532   11.5429 C   0  0  0  0  0  0  0  0  0  0  0  0
   -9.8871  -16.6305   11.7091 N   0  0  0  0  0  0  0  0  0  0  0  0
  -11.4797  -18.6190   11.5907 C   0  0  0  0  0  0  0  0  0  0  0  0
  -11.5235  -19.9856   11.3823 C   0  0  0  0  0  0  0  0  0  0  0  0
  -12.7149  -20.6386   11.4293 O   0  0  0  0  0  0  0  0  0  0  0  0
  -13.3261  -20.9379   10.2530 C   0  0  0  0  0  0  0  0  0  0  0  0
  -13.3825  -22.2538    9.8135 C   0  0  0  0  0  0  0  0  0  0  0  0
  -12.6732  -23.5203   10.7655 Cl  0  0  0  0  0  0  0  0  0  0  0  0
  -14.0042  -22.5541    8.6153 C   0  0  0  0  0  0  0  0  0  0  0  0
  -14.0765  -24.1986    8.0629 Cl  0  0  0  0  0  0  0  0  0  0  0  0
  -14.5708  -21.5449    7.8561 C   0  0  0  0  0  0  0  0  0  0  0  0
  -14.5144  -20.2343    8.2928 C   0  0  0  0  0  0  0  0  0  0  0  0
  -13.8991  -19.9294    9.4918 C   0  0  0  0  0  0  0  0  0  0  0  0
  -10.3540  -20.6963   11.1239 C   0  0  0  0  0  0  0  0  0  0  0  0
  -10.4256  -22.4101   10.8630 Cl  0  0  0  0  0  0  0  0  0  0  0  0
   -9.1409  -20.0461   11.0733 C   0  0  0  0  0  0  0  0  0  0  0  0
  1  2  1  0
  1 10  1  0
  2  3  2  0
  2  4  1  0
  4  5  2  0
  4  9  1  0
  5  6  1  0
  6  7  2  0
  7  8  1  0
  8  9  2  0
 10 11  2  0
 10 14  1  0
 11 12  1  0
 12 13  2  0
 12 28  1  0
 13 14  1  0
 13 15  1  0
 15 16  2  0
 16 17  1  0
 16 26  1  0
 17 18  1  0
 18 19  2  0
 18 25  1  0
 19 20  1  0
 19 21  1  0
 21 22  1  0
 21 23  2  0
 23 24  1  0
 24 25  2  0
 26 27  1  0
 26 28  2  0
M  END
>  <Gold.Gold.Protein.RotatedWaterAtoms>  (28) 


>  <Gold.Id.Protein>  (28) 


>  <Gold.PLP.Chemscore.CHOScore>  (28) 
0.2297

>  <Gold.PLP.Chemscore.Hbond>  (28) 
0.5920

>  <Gold.PLP.Chemscore.Internal.Correction>  (28) 
0.0454

>  <Gold.PLP.Chemscore.Metal>  (28) 
0.0000

>  <Gold.PLP.Fitness>  (28) 
60.7468

>  <Gold.PLP.PLP>  (28) 
-60.0992

>  <Gold.PLP.ligand.clash>  (28) 
0.2103

>  <Gold.PLP.ligand.torsion>  (28) 
0.8262

>  <Gold.PLP.part.buried>  (28) 
-9.0646

>  <Gold.PLP.part.hbond>  (28) 
-1.9968

>  <Gold.PLP.part.metal>  (28) 
0.0000

>  <Gold.PLP.part.nonpolar>  (28) 
-49.7593

>  <Gold.PLP.part.repulsive>  (28) 
0.6555

>  <Gold.Protein.RotatedAtoms>  (28) 


>  <Gold.Protein.RotatedTorsions>  (28) 


>  <Gold.Protein.RotatedWaterAtoms>  (28) 


>  <Gold.Version>  (28) 
5.3.0

>  <PLP.Chemscore.CHOScore>  (28) 


>  <PLP.Chemscore.Hbond>  (28) 


>  <PLP.Chemscore.Internal.Correction>  (28) 


>  <PLP.Chemscore.Metal>  (28) 


>  <PLP.Fitness>  (28) 


>  <PLP.PLP>  (28) 


>  <PLP.ligand.clash>  (28) 


>  <PLP.ligand.torsion>  (28) 


>  <PLP.part.buried>  (28) 


>  <PLP.part.hbond>  (28) 


>  <PLP.part.metal>  (28) 


>  <PLP.part.nonpolar>  (28) 


>  <PLP.part.repulsive>  (28) 


>  <Version>  (28) 


$$$$
3028|Compound_1874|Compounds_3D_F|sdf|542|dock1|1
     RDKit          3D

 18 19  0  0  0  0  0  0  0  0999 V2000
   -9.1946  -14.6412   12.3611 N   0  0  0  0  0  0  0  0  0  0  0  0
   -7.9293  -14.4356   11.9442 C   0  0  0  0  0  0  0  0  0  0  0  0
   -7.2942  -15.3500   11.4573 O   0  0  0  0  0  0  0  0  0  0  0  0
   -7.3141  -13.0956   12.0796 C   0  0  0  0  0  0  0  0  0  0  0  0
   -6.0632  -12.9745   12.5096 N   0  0  0  0  0  0  0  0  0  0  0  0
   -5.4956  -11.8313   12.6399 N   0  0  0  0  0  0  0  0  0  0  0  0
   -6.1143  -10.6991   12.3557 C   0  0  0  0  0  0  0  0  0  0  0  0
   -7.4224  -10.7178   11.8993 C   0  0  0  0  0  0  0  0  0  0  0  0
   -8.0439  -11.9507   11.7489 C   0  0  0  0  0  0  0  0  0  0  0  0
   -9.7708  -15.8998   12.2389 C   0  0  0  0  0  0  0  0  0  0  0  0
  -10.9381  -16.3501   12.6799 N   0  0  0  0  0  0  0  0  0  0  0  0
  -11.3124  -17.5370   12.4774 N   0  0  0  0  0  0  0  0  0  0  0  0
  -10.5703  -18.4048   11.8177 C   0  0  0  0  0  0  0  0  0  0  0  0
   -9.1550  -17.3753   11.4340 S   0  0  0  0  0  0  0  0  0  0  0  0
  -10.8376  -19.8481   11.4782 C   0  0  0  0  0  0  0  0  0  0  0  0
  -11.9602  -19.9301   10.6462 F   0  0  0  0  0  0  0  0  0  0  0  0
   -9.7280  -20.3845   10.8170 F   0  0  0  0  0  0  0  0  0  0  0  0
  -11.0751  -20.5677   12.6536 F   0  0  0  0  0  0  0  0  0  0  0  0
  1  2  1  0
  1 10  1  0
  2  3  2  0
  2  4  1  0
  4  5  2  0
  4  9  1  0
  5  6  1  0
  6  7  2  0
  7  8  1  0
  8  9  2  0
 10 11  2  0
 10 14  1  0
 11 12  1  0
 12 13  2  0
 13 14  1  0
 13 15  1  0
 15 16  1  0
 15 17  1  0
 15 18  1  0
M  END
>  <Gold.Gold.Protein.RotatedWaterAtoms>  (29) 


>  <Gold.Id.Protein>  (29) 


>  <Gold.PLP.Chemscore.CHOScore>  (29) 
0.7665

>  <Gold.PLP.Chemscore.Hbond>  (29) 
1.6995

>  <Gold.PLP.Chemscore.Internal.Correction>  (29) 
0.0045

>  <Gold.PLP.Chemscore.Metal>  (29) 
0.0000

>  <Gold.PLP.Fitness>  (29) 
48.1487

>  <Gold.PLP.PLP>  (29) 
-42.2341

>  <Gold.PLP.ligand.clash>  (29) 
0.0000

>  <Gold.PLP.ligand.torsion>  (29) 
0.7440

>  <Gold.PLP.part.buried>  (29) 
-4.4591

>  <Gold.PLP.part.hbond>  (29) 
-6.0533

>  <Gold.PLP.part.metal>  (29) 
0.0000

>  <Gold.PLP.part.nonpolar>  (29) 
-34.5651

>  <Gold.PLP.part.repulsive>  (29) 
0.9872

>  <Gold.Protein.RotatedAtoms>  (29) 


>  <Gold.Protein.RotatedTorsions>  (29) 


>  <Gold.Protein.RotatedWaterAtoms>  (29) 


>  <Gold.Version>  (29) 
5.3.0

>  <PLP.Chemscore.CHOScore>  (29) 


>  <PLP.Chemscore.Hbond>  (29) 


>  <PLP.Chemscore.Internal.Correction>  (29) 


>  <PLP.Chemscore.Metal>  (29) 


>  <PLP.Fitness>  (29) 


>  <PLP.PLP>  (29) 


>  <PLP.ligand.clash>  (29) 


>  <PLP.ligand.torsion>  (29) 


>  <PLP.part.buried>  (29) 


>  <PLP.part.hbond>  (29) 


>  <PLP.part.metal>  (29) 


>  <PLP.part.nonpolar>  (29) 


>  <PLP.part.repulsive>  (29) 


>  <Version>  (29) 


$$$$
3029|Compound_1874|Compounds_3D_F|sdf|542|dock2|1
     RDKit          3D

 18 19  0  0  0  0  0  0  0  0999 V2000
   -9.0712  -17.9425   10.9030 N   0  0  0  0  0  0  0  0  0  0  0  0
   -8.8606  -16.7928   11.5745 C   0  0  0  0  0  0  0  0  0  0  0  0
   -9.8038  -16.1613   12.0082 O   0  0  0  0  0  0  0  0  0  0  0  0
   -7.4801  -16.3002   11.7834 C   0  0  0  0  0  0  0  0  0  0  0  0
   -6.4421  -17.0780   11.4973 N   0  0  0  0  0  0  0  0  0  0  0  0
   -5.2316  -16.6870   11.6645 N   0  0  0  0  0  0  0  0  0  0  0  0
   -4.9350  -15.4871   12.1308 C   0  0  0  0  0  0  0  0  0  0  0  0
   -5.9471  -14.5996   12.4593 C   0  0  0  0  0  0  0  0  0  0  0  0
   -7.2610  -15.0110   12.2762 C   0  0  0  0  0  0  0  0  0  0  0  0
  -10.3669  -18.4029   10.7023 C   0  0  0  0  0  0  0  0  0  0  0  0
  -11.5239  -17.9017   11.1150 N   0  0  0  0  0  0  0  0  0  0  0  0
  -12.6236  -18.4529   10.8385 N   0  0  0  0  0  0  0  0  0  0  0  0
  -12.6951  -19.5597   10.1250 C   0  0  0  0  0  0  0  0  0  0  0  0
  -10.9540  -19.8367    9.8058 S   0  0  0  0  0  0  0  0  0  0  0  0
  -13.8971  -20.3602    9.6957 C   0  0  0  0  0  0  0  0  0  0  0  0
  -13.8905  -20.4983    8.3029 F   0  0  0  0  0  0  0  0  0  0  0  0
  -13.8502  -21.6257   10.2893 F   0  0  0  0  0  0  0  0  0  0  0  0
  -15.0638  -19.6995   10.0930 F   0  0  0  0  0  0  0  0  0  0  0  0
  1  2  1  0
  1 10  1  0
  2  3  2  0
  2  4  1  0
  4  5  2  0
  4  9  1  0
  5  6  1  0
  6  7  2  0
  7  8  1  0
  8  9  2  0
 10 11  2  0
 10 14  1  0
 11 12  1  0
 12 13  2  0
 13 14  1  0
 13 15  1  0
 15 16  1  0
 15 17  1  0
 15 18  1  0
M  END
>  <Gold.Gold.Protein.RotatedWaterAtoms>  (30) 


>  <Gold.Id.Protein>  (30) 


>  <Gold.PLP.Chemscore.CHOScore>  (30) 
1.0918

>  <Gold.PLP.Chemscore.Hbond>  (30) 
1.0000

>  <Gold.PLP.Chemscore.Internal.Correction>  (30) 
0.0007

>  <Gold.PLP.Chemscore.Metal>  (30) 
0.0000

>  <Gold.PLP.Fitness>  (30) 
43.7604

>  <Gold.PLP.PLP>  (30) 
-37.7037

>  <Gold.PLP.ligand.clash>  (30) 
0.0000

>  <Gold.PLP.ligand.torsion>  (30) 
0.1096

>  <Gold.PLP.part.buried>  (30) 
-6.6478

>  <Gold.PLP.part.hbond>  (30) 
-1.9556

>  <Gold.PLP.part.metal>  (30) 
0.0000

>  <Gold.PLP.part.nonpolar>  (30) 
-28.2664

>  <Gold.PLP.part.repulsive>  (30) 
0.1889

>  <Gold.Protein.RotatedAtoms>  (30) 


>  <Gold.Protein.RotatedTorsions>  (30) 


>  <Gold.Protein.RotatedWaterAtoms>  (30) 


>  <Gold.Version>  (30) 
5.3.0

>  <PLP.Chemscore.CHOScore>  (30) 


>  <PLP.Chemscore.Hbond>  (30) 


>  <PLP.Chemscore.Internal.Correction>  (30) 


>  <PLP.Chemscore.Metal>  (30) 


>  <PLP.Fitness>  (30) 


>  <PLP.PLP>  (30) 


>  <PLP.ligand.clash>  (30) 


>  <PLP.ligand.torsion>  (30) 


>  <PLP.part.buried>  (30) 


>  <PLP.part.hbond>  (30) 


>  <PLP.part.metal>  (30) 


>  <PLP.part.nonpolar>  (30) 


>  <PLP.part.repulsive>  (30) 


>  <Version>  (30) 


$$$$
3030|Compound_1874|Compounds_3D_F|sdf|542|dock3|1
     RDKit          3D

 18 19  0  0  0  0  0  0  0  0999 V2000
   -8.5921  -15.5463   12.0811 N   0  0  0  0  0  0  0  0  0  0  0  0
   -8.9345  -14.2478   12.1983 C   0  0  0  0  0  0  0  0  0  0  0  0
  -10.1041  -13.9353   12.3029 O   0  0  0  0  0  0  0  0  0  0  0  0
   -7.8853  -13.2031   12.1997 C   0  0  0  0  0  0  0  0  0  0  0  0
   -8.1937  -11.9453   11.9048 N   0  0  0  0  0  0  0  0  0  0  0  0
   -7.3129  -11.0124   11.8956 N   0  0  0  0  0  0  0  0  0  0  0  0
   -6.0424  -11.2379   12.1786 C   0  0  0  0  0  0  0  0  0  0  0  0
   -5.6185  -12.5174   12.4997 C   0  0  0  0  0  0  0  0  0  0  0  0
   -6.5653  -13.5333   12.5185 C   0  0  0  0  0  0  0  0  0  0  0  0
   -9.5767  -16.5269   12.0747 C   0  0  0  0  0  0  0  0  0  0  0  0
  -10.8256  -16.4849   12.5202 N   0  0  0  0  0  0  0  0  0  0  0  0
  -11.5963  -17.4789   12.4334 N   0  0  0  0  0  0  0  0  0  0  0  0
  -11.2123  -18.6210   11.8974 C   0  0  0  0  0  0  0  0  0  0  0  0
   -9.5264  -18.2057   11.4554 S   0  0  0  0  0  0  0  0  0  0  0  0
  -11.9743  -19.9065   11.7060 C   0  0  0  0  0  0  0  0  0  0  0  0
  -11.3221  -20.9399   12.3886 F   0  0  0  0  0  0  0  0  0  0  0  0
  -13.2700  -19.7598   12.2117 F   0  0  0  0  0  0  0  0  0  0  0  0
  -12.0356  -20.2142   10.3432 F   0  0  0  0  0  0  0  0  0  0  0  0
  1  2  1  0
  1 10  1  0
  2  3  2  0
  2  4  1  0
  4  5  2  0
  4  9  1  0
  5  6  1  0
  6  7  2  0
  7  8  1  0
  8  9  2  0
 10 11  2  0
 10 14  1  0
 11 12  1  0
 12 13  2  0
 13 14  1  0
 13 15  1  0
 15 16  1  0
 15 17  1  0
 15 18  1  0
M  END
>  <Gold.Gold.Protein.RotatedWaterAtoms>  (31) 


>  <Gold.Id.Protein>  (31) 


>  <Gold.PLP.Chemscore.CHOScore>  (31) 
0.0000

>  <Gold.PLP.Chemscore.Hbond>  (31) 
1.8899

>  <Gold.PLP.Chemscore.Internal.Correction>  (31) 
0.0007

>  <Gold.PLP.Chemscore.Metal>  (31) 
0.0000

>  <Gold.PLP.Fitness>  (31) 
48.6159

>  <Gold.PLP.PLP>  (31) 
-43.5166

>  <Gold.PLP.ligand.clash>  (31) 
0.0000

>  <Gold.PLP.ligand.torsion>  (31) 
0.2856

>  <Gold.PLP.part.buried>  (31) 
-4.7611

>  <Gold.PLP.part.hbond>  (31) 
-5.3165

>  <Gold.PLP.part.metal>  (31) 
0.0000

>  <Gold.PLP.part.nonpolar>  (31) 
-33.1215

>  <Gold.PLP.part.repulsive>  (31) 
0.6699

>  <Gold.Protein.RotatedAtoms>  (31) 


>  <Gold.Protein.RotatedTorsions>  (31) 


>  <Gold.Protein.RotatedWaterAtoms>  (31) 


>  <Gold.Version>  (31) 
5.3.0

>  <PLP.Chemscore.CHOScore>  (31) 


>  <PLP.Chemscore.Hbond>  (31) 


>  <PLP.Chemscore.Internal.Correction>  (31) 


>  <PLP.Chemscore.Metal>  (31) 


>  <PLP.Fitness>  (31) 


>  <PLP.PLP>  (31) 


>  <PLP.ligand.clash>  (31) 


>  <PLP.ligand.torsion>  (31) 


>  <PLP.part.buried>  (31) 


>  <PLP.part.hbond>  (31) 


>  <PLP.part.metal>  (31) 


>  <PLP.part.nonpolar>  (31) 


>  <PLP.part.repulsive>  (31) 


>  <Version>  (31) 


$$$$
3031|Compound_1874|Compounds_3D_F|sdf|542|dock4|1
     RDKit          3D

 18 19  0  0  0  0  0  0  0  0999 V2000
   -8.7575  -16.8296   11.6572 N   0  0  0  0  0  0  0  0  0  0  0  0
   -8.7937  -15.5213   11.9798 C   0  0  0  0  0  0  0  0  0  0  0  0
   -9.8618  -14.9532   12.0933 O   0  0  0  0  0  0  0  0  0  0  0  0
   -7.5320  -14.7773   12.1958 C   0  0  0  0  0  0  0  0  0  0  0  0
   -6.3797  -15.4301   12.2968 N   0  0  0  0  0  0  0  0  0  0  0  0
   -5.2660  -14.8211   12.4839 N   0  0  0  0  0  0  0  0  0  0  0  0
   -5.1889  -13.5064   12.5882 C   0  0  0  0  0  0  0  0  0  0  0  0
   -6.3353  -12.7337   12.4963 C   0  0  0  0  0  0  0  0  0  0  0  0
   -7.5453  -13.3829   12.2877 C   0  0  0  0  0  0  0  0  0  0  0  0
   -9.9412  -17.5273   11.4494 C   0  0  0  0  0  0  0  0  0  0  0  0
  -11.0357  -17.5919   12.1962 N   0  0  0  0  0  0  0  0  0  0  0  0
  -12.0343  -18.2815   11.8542 N   0  0  0  0  0  0  0  0  0  0  0  0
  -12.0552  -18.9815   10.7367 C   0  0  0  0  0  0  0  0  0  0  0  0
  -10.4296  -18.5891   10.0936 S   0  0  0  0  0  0  0  0  0  0  0  0
  -13.1381  -19.8570   10.1615 C   0  0  0  0  0  0  0  0  0  0  0  0
  -12.6949  -20.4136    8.9562 F   0  0  0  0  0  0  0  0  0  0  0  0
  -13.4378  -20.8816   11.0651 F   0  0  0  0  0  0  0  0  0  0  0  0
  -14.2833  -19.0895    9.9272 F   0  0  0  0  0  0  0  0  0  0  0  0
  1  2  1  0
  1 10  1  0
  2  3  2  0
  2  4  1  0
  4  5  2  0
  4  9  1  0
  5  6  1  0
  6  7  2  0
  7  8  1  0
  8  9  2  0
 10 11  2  0
 10 14  1  0
 11 12  1  0
 12 13  2  0
 13 14  1  0
 13 15  1  0
 15 16  1  0
 15 17  1  0
 15 18  1  0
M  END
>  <Gold.Gold.Protein.RotatedWaterAtoms>  (32) 


>  <Gold.Id.Protein>  (32) 


>  <Gold.PLP.Chemscore.CHOScore>  (32) 
1.0000

>  <Gold.PLP.Chemscore.Hbond>  (32) 
1.3718

>  <Gold.PLP.Chemscore.Internal.Correction>  (32) 
0.0007

>  <Gold.PLP.Chemscore.Metal>  (32) 
0.0000

>  <Gold.PLP.Fitness>  (32) 
45.2109

>  <Gold.PLP.PLP>  (32) 
-39.0933

>  <Gold.PLP.ligand.clash>  (32) 
0.0000

>  <Gold.PLP.ligand.torsion>  (32) 
0.4993

>  <Gold.PLP.part.buried>  (32) 
-6.8056

>  <Gold.PLP.part.hbond>  (32) 
-2.6342

>  <Gold.PLP.part.metal>  (32) 
0.0000

>  <Gold.PLP.part.nonpolar>  (32) 
-30.5514

>  <Gold.PLP.part.repulsive>  (32) 
0.5356

>  <Gold.Protein.RotatedAtoms>  (32) 


>  <Gold.Protein.RotatedTorsions>  (32) 


>  <Gold.Protein.RotatedWaterAtoms>  (32) 


>  <Gold.Version>  (32) 
5.3.0

>  <PLP.Chemscore.CHOScore>  (32) 


>  <PLP.Chemscore.Hbond>  (32) 


>  <PLP.Chemscore.Internal.Correction>  (32) 


>  <PLP.Chemscore.Metal>  (32) 


>  <PLP.Fitness>  (32) 


>  <PLP.PLP>  (32) 


>  <PLP.ligand.clash>  (32) 


>  <PLP.ligand.torsion>  (32) 


>  <PLP.part.buried>  (32) 


>  <PLP.part.hbond>  (32) 


>  <PLP.part.metal>  (32) 


>  <PLP.part.nonpolar>  (32) 


>  <PLP.part.repulsive>  (32) 


>  <Version>  (32) 


$$$$
3032|Compound_1874|Compounds_3D_F|sdf|542|dock5|1
     RDKit          3D

 18 19  0  0  0  0  0  0  0  0999 V2000
   -8.3225  -15.3130   12.1086 N   0  0  0  0  0  0  0  0  0  0  0  0
   -8.7596  -14.0385   12.1506 C   0  0  0  0  0  0  0  0  0  0  0  0
   -9.9521  -13.8058   12.1694 O   0  0  0  0  0  0  0  0  0  0  0  0
   -7.7863  -12.9230   12.1739 C   0  0  0  0  0  0  0  0  0  0  0  0
   -8.1798  -11.6864   11.8907 N   0  0  0  0  0  0  0  0  0  0  0  0
   -7.3666  -10.6939   11.9005 N   0  0  0  0  0  0  0  0  0  0  0  0
   -6.0858  -10.8332   12.1927 C   0  0  0  0  0  0  0  0  0  0  0  0
   -5.5759  -12.0837   12.5030 C   0  0  0  0  0  0  0  0  0  0  0  0
   -6.4492  -13.1637   12.5011 C   0  0  0  0  0  0  0  0  0  0  0  0
   -9.2355  -16.3603   12.0817 C   0  0  0  0  0  0  0  0  0  0  0  0
  -10.5079  -16.3928   12.4556 N   0  0  0  0  0  0  0  0  0  0  0  0
  -11.2023  -17.4409   12.3608 N   0  0  0  0  0  0  0  0  0  0  0  0
  -10.7105  -18.5690   11.8868 C   0  0  0  0  0  0  0  0  0  0  0  0
   -9.0345  -18.0496   11.5247 S   0  0  0  0  0  0  0  0  0  0  0  0
  -11.3702  -19.9103   11.6981 C   0  0  0  0  0  0  0  0  0  0  0  0
  -12.4240  -19.7860   10.7854 F   0  0  0  0  0  0  0  0  0  0  0  0
  -10.4336  -20.8250   11.2060 F   0  0  0  0  0  0  0  0  0  0  0  0
  -11.8668  -20.3627   12.9246 F   0  0  0  0  0  0  0  0  0  0  0  0
  1  2  1  0
  1 10  1  0
  2  3  2  0
  2  4  1  0
  4  5  2  0
  4  9  1  0
  5  6  1  0
  6  7  2  0
  7  8  1  0
  8  9  2  0
 10 11  2  0
 10 14  1  0
 11 12  1  0
 12 13  2  0
 13 14  1  0
 13 15  1  0
 15 16  1  0
 15 17  1  0
 15 18  1  0
M  END
>  <Gold.Gold.Protein.RotatedWaterAtoms>  (33) 


>  <Gold.Id.Protein>  (33) 


>  <Gold.PLP.Chemscore.CHOScore>  (33) 
0.0423

>  <Gold.PLP.Chemscore.Hbond>  (33) 
2.0000

>  <Gold.PLP.Chemscore.Internal.Correction>  (33) 
0.0003

>  <Gold.PLP.Chemscore.Metal>  (33) 
0.0000

>  <Gold.PLP.Fitness>  (33) 
50.5480

>  <Gold.PLP.PLP>  (33) 
-44.8985

>  <Gold.PLP.ligand.clash>  (33) 
0.0000

>  <Gold.PLP.ligand.torsion>  (33) 
0.2388

>  <Gold.PLP.part.buried>  (33) 
-8.4829

>  <Gold.PLP.part.hbond>  (33) 
-3.7570

>  <Gold.PLP.part.metal>  (33) 
0.0000

>  <Gold.PLP.part.nonpolar>  (33) 
-33.5863

>  <Gold.PLP.part.repulsive>  (33) 
0.6736

>  <Gold.Protein.RotatedAtoms>  (33) 


>  <Gold.Protein.RotatedTorsions>  (33) 


>  <Gold.Protein.RotatedWaterAtoms>  (33) 


>  <Gold.Version>  (33) 
5.3.0

>  <PLP.Chemscore.CHOScore>  (33) 


>  <PLP.Chemscore.Hbond>  (33) 


>  <PLP.Chemscore.Internal.Correction>  (33) 


>  <PLP.Chemscore.Metal>  (33) 


>  <PLP.Fitness>  (33) 


>  <PLP.PLP>  (33) 


>  <PLP.ligand.clash>  (33) 


>  <PLP.ligand.torsion>  (33) 


>  <PLP.part.buried>  (33) 


>  <PLP.part.hbond>  (33) 


>  <PLP.part.metal>  (33) 


>  <PLP.part.nonpolar>  (33) 


>  <PLP.part.repulsive>  (33) 


>  <Version>  (33) 


$$$$
3033|Compound_1874|Compounds_3D_F|sdf|542|dock6|1
     RDKit          3D

 18 19  0  0  0  0  0  0  0  0999 V2000
   -8.9981  -17.7700   10.9499 N   0  0  0  0  0  0  0  0  0  0  0  0
   -8.7690  -16.6627   11.6837 C   0  0  0  0  0  0  0  0  0  0  0  0
   -9.6993  -16.0638   12.1861 O   0  0  0  0  0  0  0  0  0  0  0  0
   -7.3838  -16.1768   11.8772 C   0  0  0  0  0  0  0  0  0  0  0  0
   -6.3532  -16.9708   11.6093 N   0  0  0  0  0  0  0  0  0  0  0  0
   -5.1390  -16.5861   11.7640 N   0  0  0  0  0  0  0  0  0  0  0  0
   -4.8311  -15.3772   12.1988 C   0  0  0  0  0  0  0  0  0  0  0  0
   -5.8348  -14.4728   12.5061 C   0  0  0  0  0  0  0  0  0  0  0  0
   -7.1526  -14.8773   12.3362 C   0  0  0  0  0  0  0  0  0  0  0  0
  -10.2984  -18.2237   10.7638 C   0  0  0  0  0  0  0  0  0  0  0  0
  -11.4176  -17.8863   11.3909 N   0  0  0  0  0  0  0  0  0  0  0  0
  -12.5288  -18.4014   11.0915 N   0  0  0  0  0  0  0  0  0  0  0  0
  -12.6500  -19.3065   10.1400 C   0  0  0  0  0  0  0  0  0  0  0  0
  -10.9445  -19.4241    9.6037 S   0  0  0  0  0  0  0  0  0  0  0  0
  -13.8733  -20.0312    9.6418 C   0  0  0  0  0  0  0  0  0  0  0  0
  -13.5156  -20.8743    8.5833 F   0  0  0  0  0  0  0  0  0  0  0  0
  -14.4185  -20.7932   10.6801 F   0  0  0  0  0  0  0  0  0  0  0  0
  -14.8182  -19.1009    9.1976 F   0  0  0  0  0  0  0  0  0  0  0  0
  1  2  1  0
  1 10  1  0
  2  3  2  0
  2  4  1  0
  4  5  2  0
  4  9  1  0
  5  6  1  0
  6  7  2  0
  7  8  1  0
  8  9  2  0
 10 11  2  0
 10 14  1  0
 11 12  1  0
 12 13  2  0
 13 14  1  0
 13 15  1  0
 15 16  1  0
 15 17  1  0
 15 18  1  0
M  END
>  <Gold.Gold.Protein.RotatedWaterAtoms>  (34) 


>  <Gold.Id.Protein>  (34) 


>  <Gold.PLP.Chemscore.CHOScore>  (34) 
1.1047

>  <Gold.PLP.Chemscore.Hbond>  (34) 
1.0000

>  <Gold.PLP.Chemscore.Internal.Correction>  (34) 
0.0003

>  <Gold.PLP.Chemscore.Metal>  (34) 
0.0000

>  <Gold.PLP.Fitness>  (34) 
44.4046

>  <Gold.PLP.PLP>  (34) 
-38.4221

>  <Gold.PLP.ligand.clash>  (34) 
0.0000

>  <Gold.PLP.ligand.torsion>  (34) 
0.1659

>  <Gold.PLP.part.buried>  (34) 
-7.2415

>  <Gold.PLP.part.hbond>  (34) 
-2.3126

>  <Gold.PLP.part.metal>  (34) 
0.0000

>  <Gold.PLP.part.nonpolar>  (34) 
-29.0644

>  <Gold.PLP.part.repulsive>  (34) 
0.2256

>  <Gold.Protein.RotatedAtoms>  (34) 


>  <Gold.Protein.RotatedTorsions>  (34) 


>  <Gold.Protein.RotatedWaterAtoms>  (34) 


>  <Gold.Version>  (34) 
5.3.0

>  <PLP.Chemscore.CHOScore>  (34) 


>  <PLP.Chemscore.Hbond>  (34) 


>  <PLP.Chemscore.Internal.Correction>  (34) 


>  <PLP.Chemscore.Metal>  (34) 


>  <PLP.Fitness>  (34) 


>  <PLP.PLP>  (34) 


>  <PLP.ligand.clash>  (34) 


>  <PLP.ligand.torsion>  (34) 


>  <PLP.part.buried>  (34) 


>  <PLP.part.hbond>  (34) 


>  <PLP.part.metal>  (34) 


>  <PLP.part.nonpolar>  (34) 


>  <PLP.part.repulsive>  (34) 


>  <Version>  (34) 


$$$$
3034|Compound_1874|Compounds_3D_F|sdf|542|dock7|1
     RDKit          3D

 18 19  0  0  0  0  0  0  0  0999 V2000
   -8.3515  -15.2536   12.2454 N   0  0  0  0  0  0  0  0  0  0  0  0
   -8.7543  -13.9861   12.0259 C   0  0  0  0  0  0  0  0  0  0  0  0
   -9.9191  -13.7551   11.7678 O   0  0  0  0  0  0  0  0  0  0  0  0
   -7.7773  -12.8760   12.0995 C   0  0  0  0  0  0  0  0  0  0  0  0
   -8.1591  -11.6309   11.8383 N   0  0  0  0  0  0  0  0  0  0  0  0
   -7.3423  -10.6428   11.8916 N   0  0  0  0  0  0  0  0  0  0  0  0
   -6.0692  -10.7953   12.2097 C   0  0  0  0  0  0  0  0  0  0  0  0
   -5.5717  -12.0554   12.5002 C   0  0  0  0  0  0  0  0  0  0  0  0
   -6.4491  -13.1310   12.4512 C   0  0  0  0  0  0  0  0  0  0  0  0
   -9.2670  -16.2965   12.1716 C   0  0  0  0  0  0  0  0  0  0  0  0
  -10.5426  -16.3391   12.5333 N   0  0  0  0  0  0  0  0  0  0  0  0
  -11.2390  -17.3808   12.3935 N   0  0  0  0  0  0  0  0  0  0  0  0
  -10.7462  -18.4919   11.8817 C   0  0  0  0  0  0  0  0  0  0  0  0
   -9.0657  -17.9643   11.5534 S   0  0  0  0  0  0  0  0  0  0  0  0
  -11.4078  -19.8232   11.6373 C   0  0  0  0  0  0  0  0  0  0  0  0
  -11.3565  -20.1243   10.2714 F   0  0  0  0  0  0  0  0  0  0  0  0
  -10.7368  -20.8162   12.3584 F   0  0  0  0  0  0  0  0  0  0  0  0
  -12.7420  -19.7643   12.0518 F   0  0  0  0  0  0  0  0  0  0  0  0
  1  2  1  0
  1 10  1  0
  2  3  2  0
  2  4  1  0
  4  5  2  0
  4  9  1  0
  5  6  1  0
  6  7  2  0
  7  8  1  0
  8  9  2  0
 10 11  2  0
 10 14  1  0
 11 12  1  0
 12 13  2  0
 13 14  1  0
 13 15  1  0
 15 16  1  0
 15 17  1  0
 15 18  1  0
M  END
>  <Gold.Gold.Protein.RotatedWaterAtoms>  (35) 


>  <Gold.Id.Protein>  (35) 


>  <Gold.PLP.Chemscore.CHOScore>  (35) 
0.1649

>  <Gold.PLP.Chemscore.Hbond>  (35) 
1.9090

>  <Gold.PLP.Chemscore.Internal.Correction>  (35) 
0.0003

>  <Gold.PLP.Chemscore.Metal>  (35) 
0.0000

>  <Gold.PLP.Fitness>  (35) 
51.0300

>  <Gold.PLP.PLP>  (35) 
-45.3448

>  <Gold.PLP.ligand.clash>  (35) 
0.0000

>  <Gold.PLP.ligand.torsion>  (35) 
0.2683

>  <Gold.PLP.part.buried>  (35) 
-8.9702

>  <Gold.PLP.part.hbond>  (35) 
-4.4441

>  <Gold.PLP.part.metal>  (35) 
0.0000

>  <Gold.PLP.part.nonpolar>  (35) 
-33.9163

>  <Gold.PLP.part.repulsive>  (35) 
0.7220

>  <Gold.Protein.RotatedAtoms>  (35) 


>  <Gold.Protein.RotatedTorsions>  (35) 


>  <Gold.Protein.RotatedWaterAtoms>  (35) 


>  <Gold.Version>  (35) 
5.3.0

>  <PLP.Chemscore.CHOScore>  (35) 


>  <PLP.Chemscore.Hbond>  (35) 


>  <PLP.Chemscore.Internal.Correction>  (35) 


>  <PLP.Chemscore.Metal>  (35) 


>  <PLP.Fitness>  (35) 


>  <PLP.PLP>  (35) 


>  <PLP.ligand.clash>  (35) 


>  <PLP.ligand.torsion>  (35) 


>  <PLP.part.buried>  (35) 


>  <PLP.part.hbond>  (35) 


>  <PLP.part.metal>  (35) 


>  <PLP.part.nonpolar>  (35) 


>  <PLP.part.repulsive>  (35) 


>  <Version>  (35) 


$$$$
3035|Compound_1875|Compounds_3D_F|sdf|543|dock1|1
     RDKit          3D

 20 21  0  0  0  0  0  0  0  0999 V2000
   -9.1921  -14.0159   10.6865 O   0  0  0  0  0  0  0  0  0  0  0  0
   -8.0423  -14.7049   10.8208 C   0  0  0  0  0  0  0  0  0  0  0  0
   -7.4606  -14.7142   11.8873 O   0  0  0  0  0  0  0  0  0  0  0  0
   -7.4877  -15.4501    9.6692 C   0  0  0  0  0  0  0  0  0  0  0  0
   -6.3555  -15.0518    9.0844 N   0  0  0  0  0  0  0  0  0  0  0  0
   -5.8559  -15.7104    8.0571 C   0  0  0  0  0  0  0  0  0  0  0  0
   -4.7042  -15.2721    7.4933 O   0  0  0  0  0  0  0  0  0  0  0  0
   -6.4448  -16.7881    7.5598 N   0  0  0  0  0  0  0  0  0  0  0  0
   -7.5707  -17.2517    8.0791 C   0  0  0  0  0  0  0  0  0  0  0  0
   -8.1641  -18.3553    7.5610 O   0  0  0  0  0  0  0  0  0  0  0  0
   -8.1386  -16.5863    9.1787 C   0  0  0  0  0  0  0  0  0  0  0  0
   -9.3232  -17.0396    9.7565 N   0  0  0  0  0  0  0  0  0  0  0  0
   -9.3166  -18.1433   10.5305 C   0  0  0  0  0  0  0  0  0  0  0  0
   -8.2886  -18.7733   10.6817 O   0  0  0  0  0  0  0  0  0  0  0  0
  -10.5625  -18.5877   11.1968 C   0  0  0  0  0  0  0  0  0  0  0  0
  -11.6687  -17.8591   11.0990 N   0  0  0  0  0  0  0  0  0  0  0  0
  -12.7671  -18.2105   11.6617 N   0  0  0  0  0  0  0  0  0  0  0  0
  -12.8724  -19.3179   12.3754 C   0  0  0  0  0  0  0  0  0  0  0  0
  -11.7732  -20.1467   12.5375 C   0  0  0  0  0  0  0  0  0  0  0  0
  -10.5821  -19.7789   11.9279 C   0  0  0  0  0  0  0  0  0  0  0  0
  1  2  1  0
  2  3  2  0
  2  4  1  0
  4  5  2  0
  4 11  1  0
  5  6  1  0
  6  7  1  0
  6  8  2  0
  8  9  1  0
  9 10  1  0
  9 11  2  0
 11 12  1  0
 12 13  1  0
 13 14  2  0
 13 15  1  0
 15 16  2  0
 15 20  1  0
 16 17  1  0
 17 18  2  0
 18 19  1  0
 19 20  2  0
M  END
>  <Gold.Gold.Protein.RotatedWaterAtoms>  (36) 


>  <Gold.Id.Protein>  (36) 


>  <Gold.PLP.Chemscore.CHOScore>  (36) 
0.9984

>  <Gold.PLP.Chemscore.Hbond>  (36) 
4.4672

>  <Gold.PLP.Chemscore.Internal.Correction>  (36) 
1.1570

>  <Gold.PLP.Chemscore.Metal>  (36) 
0.0000

>  <Gold.PLP.Fitness>  (36) 
45.4803

>  <Gold.PLP.PLP>  (36) 
-31.9308

>  <Gold.PLP.ligand.clash>  (36) 
0.0000

>  <Gold.PLP.ligand.torsion>  (36) 
2.0021

>  <Gold.PLP.part.buried>  (36) 
-5.0250

>  <Gold.PLP.part.hbond>  (36) 
-7.9168

>  <Gold.PLP.part.metal>  (36) 
0.0000

>  <Gold.PLP.part.nonpolar>  (36) 
-19.0557

>  <Gold.PLP.part.repulsive>  (36) 
0.4488

>  <Gold.Protein.RotatedAtoms>  (36) 


>  <Gold.Protein.RotatedTorsions>  (36) 


>  <Gold.Protein.RotatedWaterAtoms>  (36) 


>  <Gold.Version>  (36) 
5.3.0

>  <PLP.Chemscore.CHOScore>  (36) 


>  <PLP.Chemscore.Hbond>  (36) 


>  <PLP.Chemscore.Internal.Correction>  (36) 


>  <PLP.Chemscore.Metal>  (36) 


>  <PLP.Fitness>  (36) 


>  <PLP.PLP>  (36) 


>  <PLP.ligand.clash>  (36) 


>  <PLP.ligand.torsion>  (36) 


>  <PLP.part.buried>  (36) 


>  <PLP.part.hbond>  (36) 


>  <PLP.part.metal>  (36) 


>  <PLP.part.nonpolar>  (36) 


>  <PLP.part.repulsive>  (36) 


>  <Version>  (36) 


$$$$
3036|Compound_1875|Compounds_3D_F|sdf|543|dock2|1
     RDKit          3D

 20 21  0  0  0  0  0  0  0  0999 V2000
   -9.4182  -15.4247   12.2689 O   0  0  0  0  0  0  0  0  0  0  0  0
   -8.5081  -14.7766   11.5161 C   0  0  0  0  0  0  0  0  0  0  0  0
   -8.1220  -13.6730   11.8459 O   0  0  0  0  0  0  0  0  0  0  0  0
   -7.9792  -15.4089   10.2875 C   0  0  0  0  0  0  0  0  0  0  0  0
   -6.8644  -14.9500    9.7137 N   0  0  0  0  0  0  0  0  0  0  0  0
   -6.3877  -15.5079    8.6182 C   0  0  0  0  0  0  0  0  0  0  0  0
   -5.2530  -15.0111    8.0685 O   0  0  0  0  0  0  0  0  0  0  0  0
   -6.9834  -16.5399    8.0389 N   0  0  0  0  0  0  0  0  0  0  0  0
   -8.0932  -17.0578    8.5414 C   0  0  0  0  0  0  0  0  0  0  0  0
   -8.6937  -18.1138    7.9391 O   0  0  0  0  0  0  0  0  0  0  0  0
   -8.6363  -16.5003    9.7112 C   0  0  0  0  0  0  0  0  0  0  0  0
   -9.8034  -17.0136   10.2743 N   0  0  0  0  0  0  0  0  0  0  0  0
   -9.8000  -18.2414   10.8309 C   0  0  0  0  0  0  0  0  0  0  0  0
   -8.7940  -18.9221   10.7949 O   0  0  0  0  0  0  0  0  0  0  0  0
  -11.0224  -18.7604   11.4865 C   0  0  0  0  0  0  0  0  0  0  0  0
  -10.9273  -19.5168   12.5741 N   0  0  0  0  0  0  0  0  0  0  0  0
  -11.9626  -19.9851   13.1702 N   0  0  0  0  0  0  0  0  0  0  0  0
  -13.1909  -19.7480   12.7437 C   0  0  0  0  0  0  0  0  0  0  0  0
  -13.3960  -18.9691   11.6154 C   0  0  0  0  0  0  0  0  0  0  0  0
  -12.2832  -18.4528   10.9670 C   0  0  0  0  0  0  0  0  0  0  0  0
  1  2  1  0
  2  3  2  0
  2  4  1  0
  4  5  2  0
  4 11  1  0
  5  6  1  0
  6  7  1  0
  6  8  2  0
  8  9  1  0
  9 10  1  0
  9 11  2  0
 11 12  1  0
 12 13  1  0
 13 14  2  0
 13 15  1  0
 15 16  2  0
 15 20  1  0
 16 17  1  0
 17 18  2  0
 18 19  1  0
 19 20  2  0
M  END
>  <Gold.Gold.Protein.RotatedWaterAtoms>  (37) 


>  <Gold.Id.Protein>  (37) 


>  <Gold.PLP.Chemscore.CHOScore>  (37) 
1.0000

>  <Gold.PLP.Chemscore.Hbond>  (37) 
3.6120

>  <Gold.PLP.Chemscore.Internal.Correction>  (37) 
1.1570

>  <Gold.PLP.Chemscore.Metal>  (37) 
0.0000

>  <Gold.PLP.Fitness>  (37) 
45.3972

>  <Gold.PLP.PLP>  (37) 
-32.9586

>  <Gold.PLP.ligand.clash>  (37) 
0.0000

>  <Gold.PLP.ligand.torsion>  (37) 
1.2772

>  <Gold.PLP.part.buried>  (37) 
-5.5228

>  <Gold.PLP.part.hbond>  (37) 
-8.4358

>  <Gold.PLP.part.metal>  (37) 
0.0000

>  <Gold.PLP.part.nonpolar>  (37) 
-19.2349

>  <Gold.PLP.part.repulsive>  (37) 
0.3855

>  <Gold.Protein.RotatedAtoms>  (37) 


>  <Gold.Protein.RotatedTorsions>  (37) 


>  <Gold.Protein.RotatedWaterAtoms>  (37) 


>  <Gold.Version>  (37) 
5.3.0

>  <PLP.Chemscore.CHOScore>  (37) 


>  <PLP.Chemscore.Hbond>  (37) 


>  <PLP.Chemscore.Internal.Correction>  (37) 


>  <PLP.Chemscore.Metal>  (37) 


>  <PLP.Fitness>  (37) 


>  <PLP.PLP>  (37) 


>  <PLP.ligand.clash>  (37) 


>  <PLP.ligand.torsion>  (37) 


>  <PLP.part.buried>  (37) 


>  <PLP.part.hbond>  (37) 


>  <PLP.part.metal>  (37) 


>  <PLP.part.nonpolar>  (37) 


>  <PLP.part.repulsive>  (37) 


>  <Version>  (37) 


$$$$
3037|Compound_1875|Compounds_3D_F|sdf|543|dock3|1
     RDKit          3D

 20 21  0  0  0  0  0  0  0  0999 V2000
   -9.1558  -14.9328   11.6681 O   0  0  0  0  0  0  0  0  0  0  0  0
   -8.0163  -14.5519   11.0586 C   0  0  0  0  0  0  0  0  0  0  0  0
   -7.3848  -13.6068   11.4871 O   0  0  0  0  0  0  0  0  0  0  0  0
   -7.5343  -15.2846    9.8670 C   0  0  0  0  0  0  0  0  0  0  0  0
   -6.4226  -14.8986    9.2364 N   0  0  0  0  0  0  0  0  0  0  0  0
   -5.9876  -15.5461    8.1733 C   0  0  0  0  0  0  0  0  0  0  0  0
   -4.8545  -15.1211    7.5635 O   0  0  0  0  0  0  0  0  0  0  0  0
   -6.6237  -16.6002    7.6836 N   0  0  0  0  0  0  0  0  0  0  0  0
   -7.7337  -17.0503    8.2472 C   0  0  0  0  0  0  0  0  0  0  0  0
   -8.3758  -18.1297    7.7364 O   0  0  0  0  0  0  0  0  0  0  0  0
   -8.2333  -16.3960    9.3859 C   0  0  0  0  0  0  0  0  0  0  0  0
   -9.3989  -16.8356   10.0111 N   0  0  0  0  0  0  0  0  0  0  0  0
   -9.4513  -18.0712   10.5477 C   0  0  0  0  0  0  0  0  0  0  0  0
   -8.5011  -18.8210   10.4403 O   0  0  0  0  0  0  0  0  0  0  0  0
  -10.6669  -18.5143   11.2683 C   0  0  0  0  0  0  0  0  0  0  0  0
  -11.4477  -17.6248   11.8710 N   0  0  0  0  0  0  0  0  0  0  0  0
  -12.5087  -17.9693   12.5051 N   0  0  0  0  0  0  0  0  0  0  0  0
  -12.8958  -19.2293   12.6021 C   0  0  0  0  0  0  0  0  0  0  0  0
  -12.1478  -20.2334   12.0072 C   0  0  0  0  0  0  0  0  0  0  0  0
  -11.0018  -19.8707   11.3138 C   0  0  0  0  0  0  0  0  0  0  0  0
  1  2  1  0
  2  3  2  0
  2  4  1  0
  4  5  2  0
  4 11  1  0
  5  6  1  0
  6  7  1  0
  6  8  2  0
  8  9  1  0
  9 10  1  0
  9 11  2  0
 11 12  1  0
 12 13  1  0
 13 14  2  0
 13 15  1  0
 15 16  2  0
 15 20  1  0
 16 17  1  0
 17 18  2  0
 18 19  1  0
 19 20  2  0
M  END
>  <Gold.Gold.Protein.RotatedWaterAtoms>  (38) 


>  <Gold.Id.Protein>  (38) 


>  <Gold.PLP.Chemscore.CHOScore>  (38) 
1.0000

>  <Gold.PLP.Chemscore.Hbond>  (38) 
3.3904

>  <Gold.PLP.Chemscore.Internal.Correction>  (38) 
1.1570

>  <Gold.PLP.Chemscore.Metal>  (38) 
0.0000

>  <Gold.PLP.Fitness>  (38) 
45.1768

>  <Gold.PLP.PLP>  (38) 
-32.6788

>  <Gold.PLP.ligand.clash>  (38) 
0.0000

>  <Gold.PLP.ligand.torsion>  (38) 
0.9151

>  <Gold.PLP.part.buried>  (38) 
-5.8875

>  <Gold.PLP.part.hbond>  (38) 
-9.2170

>  <Gold.PLP.part.metal>  (38) 
0.0000

>  <Gold.PLP.part.nonpolar>  (38) 
-18.0627

>  <Gold.PLP.part.repulsive>  (38) 
0.5311

>  <Gold.Protein.RotatedAtoms>  (38) 


>  <Gold.Protein.RotatedTorsions>  (38) 


>  <Gold.Protein.RotatedWaterAtoms>  (38) 


>  <Gold.Version>  (38) 
5.3.0

>  <PLP.Chemscore.CHOScore>  (38) 


>  <PLP.Chemscore.Hbond>  (38) 


>  <PLP.Chemscore.Internal.Correction>  (38) 


>  <PLP.Chemscore.Metal>  (38) 


>  <PLP.Fitness>  (38) 


>  <PLP.PLP>  (38) 


>  <PLP.ligand.clash>  (38) 


>  <PLP.ligand.torsion>  (38) 


>  <PLP.part.buried>  (38) 


>  <PLP.part.hbond>  (38) 


>  <PLP.part.metal>  (38) 


>  <PLP.part.nonpolar>  (38) 


>  <PLP.part.repulsive>  (38) 


>  <Version>  (38) 


$$$$
3038|Compound_1878|Compounds_3D_F|sdf|544|dock1|1
     RDKit          3D

 19 20  0  0  0  0  0  0  0  0999 V2000
   -7.9275  -16.0502   11.8675 N   0  0  0  0  0  0  0  0  0  0  0  0
   -8.3396  -14.7699   11.7778 C   0  0  0  0  0  0  0  0  0  0  0  0
   -9.4899  -14.5222   11.4785 O   0  0  0  0  0  0  0  0  0  0  0  0
   -7.3891  -13.6664   12.0445 C   0  0  0  0  0  0  0  0  0  0  0  0
   -7.7659  -12.4039   11.8757 N   0  0  0  0  0  0  0  0  0  0  0  0
   -6.9716  -11.4208   12.0965 N   0  0  0  0  0  0  0  0  0  0  0  0
   -5.7280  -11.5960   12.5063 C   0  0  0  0  0  0  0  0  0  0  0  0
   -5.2382  -12.8756   12.7127 C   0  0  0  0  0  0  0  0  0  0  0  0
   -6.0920  -13.9466   12.4824 C   0  0  0  0  0  0  0  0  0  0  0  0
   -8.8151  -17.0829   11.6132 C   0  0  0  0  0  0  0  0  0  0  0  0
  -10.0984  -17.0568   11.8575 N   0  0  0  0  0  0  0  0  0  0  0  0
  -10.6324  -18.2502   11.4749 C   0  0  0  0  0  0  0  0  0  0  0  0
   -9.6138  -19.0085   10.9855 C   0  0  0  0  0  0  0  0  0  0  0  0
   -8.4940  -18.2695   11.0726 O   0  0  0  0  0  0  0  0  0  0  0  0
  -12.0476  -18.6464   11.5739 C   0  0  0  0  0  0  0  0  0  0  0  0
  -12.7105  -18.2972   12.5307 O   0  0  0  0  0  0  0  0  0  0  0  0
  -12.6064  -19.3969   10.6044 O   0  0  0  0  0  0  0  0  0  0  0  0
  -14.0274  -19.2159   10.3669 C   0  0  0  0  0  0  0  0  0  0  0  0
  -14.4051  -19.8455    9.0240 C   0  0  0  0  0  0  0  0  0  0  0  0
  1  2  1  0
  1 10  1  0
  2  3  2  0
  2  4  1  0
  4  5  2  0
  4  9  1  0
  5  6  1  0
  6  7  2  0
  7  8  1  0
  8  9  2  0
 10 11  2  0
 10 14  1  0
 11 12  1  0
 12 13  2  0
 12 15  1  0
 13 14  1  0
 15 16  2  0
 15 17  1  0
 17 18  1  0
 18 19  1  0
M  END
>  <Gold.Gold.Protein.RotatedWaterAtoms>  (39) 


>  <Gold.Id.Protein>  (39) 


>  <Gold.PLP.Chemscore.CHOScore>  (39) 
0.9879

>  <Gold.PLP.Chemscore.Hbond>  (39) 
1.6006

>  <Gold.PLP.Chemscore.Internal.Correction>  (39) 
0.0695

>  <Gold.PLP.Chemscore.Metal>  (39) 
0.0000

>  <Gold.PLP.Fitness>  (39) 
51.6705

>  <Gold.PLP.PLP>  (39) 
-46.2384

>  <Gold.PLP.ligand.clash>  (39) 
0.0000

>  <Gold.PLP.ligand.torsion>  (39) 
1.2015

>  <Gold.PLP.part.buried>  (39) 
-10.8429

>  <Gold.PLP.part.hbond>  (39) 
-2.7904

>  <Gold.PLP.part.metal>  (39) 
0.0000

>  <Gold.PLP.part.nonpolar>  (39) 
-35.5372

>  <Gold.PLP.part.repulsive>  (39) 
0.6599

>  <Gold.Protein.RotatedAtoms>  (39) 


>  <Gold.Protein.RotatedTorsions>  (39) 


>  <Gold.Protein.RotatedWaterAtoms>  (39) 


>  <Gold.Version>  (39) 
5.3.0

>  <PLP.Chemscore.CHOScore>  (39) 


>  <PLP.Chemscore.Hbond>  (39) 


>  <PLP.Chemscore.Internal.Correction>  (39) 


>  <PLP.Chemscore.Metal>  (39) 


>  <PLP.Fitness>  (39) 


>  <PLP.PLP>  (39) 


>  <PLP.ligand.clash>  (39) 


>  <PLP.ligand.torsion>  (39) 


>  <PLP.part.buried>  (39) 


>  <PLP.part.hbond>  (39) 


>  <PLP.part.metal>  (39) 


>  <PLP.part.nonpolar>  (39) 


>  <PLP.part.repulsive>  (39) 


>  <Version>  (39) 


$$$$
3039|Compound_1878|Compounds_3D_F|sdf|544|dock2|1
     RDKit          3D

 19 20  0  0  0  0  0  0  0  0999 V2000
   -9.3996  -17.7017   11.3838 N   0  0  0  0  0  0  0  0  0  0  0  0
   -9.1004  -16.4893   11.8916 C   0  0  0  0  0  0  0  0  0  0  0  0
   -9.9834  -15.7800   12.3289 O   0  0  0  0  0  0  0  0  0  0  0  0
   -7.6952  -16.0236   11.9159 C   0  0  0  0  0  0  0  0  0  0  0  0
   -6.7060  -16.8686   11.6483 N   0  0  0  0  0  0  0  0  0  0  0  0
   -5.4762  -16.5029   11.6593 N   0  0  0  0  0  0  0  0  0  0  0  0
   -5.1103  -15.2640   11.9362 C   0  0  0  0  0  0  0  0  0  0  0  0
   -6.0673  -14.3058   12.2289 C   0  0  0  0  0  0  0  0  0  0  0  0
   -7.4019  -14.6901   12.2137 C   0  0  0  0  0  0  0  0  0  0  0  0
  -10.7147  -18.1358   11.3564 C   0  0  0  0  0  0  0  0  0  0  0  0
  -11.2690  -18.8138   10.3867 N   0  0  0  0  0  0  0  0  0  0  0  0
  -12.5676  -19.0555   10.7198 C   0  0  0  0  0  0  0  0  0  0  0  0
  -12.7818  -18.4919   11.9399 C   0  0  0  0  0  0  0  0  0  0  0  0
  -11.6224  -17.9301   12.3244 O   0  0  0  0  0  0  0  0  0  0  0  0
  -13.5558  -19.7886    9.9100 C   0  0  0  0  0  0  0  0  0  0  0  0
  -14.7382  -19.7138   10.1806 O   0  0  0  0  0  0  0  0  0  0  0  0
  -13.1484  -20.5428    8.8705 O   0  0  0  0  0  0  0  0  0  0  0  0
  -14.1791  -21.0659    7.9915 C   0  0  0  0  0  0  0  0  0  0  0  0
  -15.0514  -22.0598    8.7620 C   0  0  0  0  0  0  0  0  0  0  0  0
  1  2  1  0
  1 10  1  0
  2  3  2  0
  2  4  1  0
  4  5  2  0
  4  9  1  0
  5  6  1  0
  6  7  2  0
  7  8  1  0
  8  9  2  0
 10 11  2  0
 10 14  1  0
 11 12  1  0
 12 13  2  0
 12 15  1  0
 13 14  1  0
 15 16  2  0
 15 17  1  0
 17 18  1  0
 18 19  1  0
M  END
>  <Gold.Gold.Protein.RotatedWaterAtoms>  (40) 


>  <Gold.Id.Protein>  (40) 


>  <Gold.PLP.Chemscore.CHOScore>  (40) 
1.7525

>  <Gold.PLP.Chemscore.Hbond>  (40) 
1.9600

>  <Gold.PLP.Chemscore.Internal.Correction>  (40) 
0.0230

>  <Gold.PLP.Chemscore.Metal>  (40) 
0.0000

>  <Gold.PLP.Fitness>  (40) 
48.1797

>  <Gold.PLP.PLP>  (40) 
-38.0958

>  <Gold.PLP.ligand.clash>  (40) 
0.0000

>  <Gold.PLP.ligand.torsion>  (40) 
0.5384

>  <Gold.PLP.part.buried>  (40) 
-6.4138

>  <Gold.PLP.part.hbond>  (40) 
-2.4312

>  <Gold.PLP.part.metal>  (40) 
0.0000

>  <Gold.PLP.part.nonpolar>  (40) 
-29.3148

>  <Gold.PLP.part.repulsive>  (40) 
0.4728

>  <Gold.Protein.RotatedAtoms>  (40) 


>  <Gold.Protein.RotatedTorsions>  (40) 


>  <Gold.Protein.RotatedWaterAtoms>  (40) 


>  <Gold.Version>  (40) 
5.3.0

>  <PLP.Chemscore.CHOScore>  (40) 


>  <PLP.Chemscore.Hbond>  (40) 


>  <PLP.Chemscore.Internal.Correction>  (40) 


>  <PLP.Chemscore.Metal>  (40) 


>  <PLP.Fitness>  (40) 


>  <PLP.PLP>  (40) 


>  <PLP.ligand.clash>  (40) 


>  <PLP.ligand.torsion>  (40) 


>  <PLP.part.buried>  (40) 


>  <PLP.part.hbond>  (40) 


>  <PLP.part.metal>  (40) 


>  <PLP.part.nonpolar>  (40) 


>  <PLP.part.repulsive>  (40) 


>  <Version>  (40) 


$$$$
3040|Compound_1878|Compounds_3D_F|sdf|544|dock3|1
     RDKit          3D

 19 20  0  0  0  0  0  0  0  0999 V2000
   -7.9303  -15.8886   11.8907 N   0  0  0  0  0  0  0  0  0  0  0  0
   -8.2933  -14.6116   11.6574 C   0  0  0  0  0  0  0  0  0  0  0  0
   -9.3966  -14.3657   11.2141 O   0  0  0  0  0  0  0  0  0  0  0  0
   -7.3465  -13.5094   11.9419 C   0  0  0  0  0  0  0  0  0  0  0  0
   -7.7069  -12.2480   11.7345 N   0  0  0  0  0  0  0  0  0  0  0  0
   -6.9150  -11.2661   11.9690 N   0  0  0  0  0  0  0  0  0  0  0  0
   -5.6903  -11.4416   12.4323 C   0  0  0  0  0  0  0  0  0  0  0  0
   -5.2186  -12.7203   12.6822 C   0  0  0  0  0  0  0  0  0  0  0  0
   -6.0702  -13.7898   12.4374 C   0  0  0  0  0  0  0  0  0  0  0  0
   -8.8141  -16.9204   11.6200 C   0  0  0  0  0  0  0  0  0  0  0  0
  -10.0954  -16.9074   11.8752 N   0  0  0  0  0  0  0  0  0  0  0  0
  -10.6258  -18.0949   11.4696 C   0  0  0  0  0  0  0  0  0  0  0  0
   -9.6070  -18.8358   10.9548 C   0  0  0  0  0  0  0  0  0  0  0  0
   -8.4907  -18.0924   11.0498 O   0  0  0  0  0  0  0  0  0  0  0  0
  -12.0379  -18.5015   11.5709 C   0  0  0  0  0  0  0  0  0  0  0  0
  -12.7159  -18.1148   12.5024 O   0  0  0  0  0  0  0  0  0  0  0  0
  -12.5770  -19.3032   10.6317 O   0  0  0  0  0  0  0  0  0  0  0  0
  -14.0265  -19.3686   10.5737 C   0  0  0  0  0  0  0  0  0  0  0  0
  -14.4613  -19.8364    9.1828 C   0  0  0  0  0  0  0  0  0  0  0  0
  1  2  1  0
  1 10  1  0
  2  3  2  0
  2  4  1  0
  4  5  2  0
  4  9  1  0
  5  6  1  0
  6  7  2  0
  7  8  1  0
  8  9  2  0
 10 11  2  0
 10 14  1  0
 11 12  1  0
 12 13  2  0
 12 15  1  0
 13 14  1  0
 15 16  2  0
 15 17  1  0
 17 18  1  0
 18 19  1  0
M  END
>  <Gold.Gold.Protein.RotatedWaterAtoms>  (41) 


>  <Gold.Id.Protein>  (41) 


>  <Gold.PLP.Chemscore.CHOScore>  (41) 
1.0214

>  <Gold.PLP.Chemscore.Hbond>  (41) 
1.6144

>  <Gold.PLP.Chemscore.Internal.Correction>  (41) 
0.0230

>  <Gold.PLP.Chemscore.Metal>  (41) 
0.0000

>  <Gold.PLP.Fitness>  (41) 
51.7701

>  <Gold.PLP.PLP>  (41) 
-46.0497

>  <Gold.PLP.ligand.clash>  (41) 
0.0000

>  <Gold.PLP.ligand.torsion>  (41) 
1.1051

>  <Gold.PLP.part.buried>  (41) 
-10.1203

>  <Gold.PLP.part.hbond>  (41) 
-2.9768

>  <Gold.PLP.part.metal>  (41) 
0.0000

>  <Gold.PLP.part.nonpolar>  (41) 
-35.5479

>  <Gold.PLP.part.repulsive>  (41) 
0.6817

>  <Gold.Protein.RotatedAtoms>  (41) 


>  <Gold.Protein.RotatedTorsions>  (41) 


>  <Gold.Protein.RotatedWaterAtoms>  (41) 


>  <Gold.Version>  (41) 
5.3.0

>  <PLP.Chemscore.CHOScore>  (41) 


>  <PLP.Chemscore.Hbond>  (41) 


>  <PLP.Chemscore.Internal.Correction>  (41) 


>  <PLP.Chemscore.Metal>  (41) 


>  <PLP.Fitness>  (41) 


>  <PLP.PLP>  (41) 


>  <PLP.ligand.clash>  (41) 


>  <PLP.ligand.torsion>  (41) 


>  <PLP.part.buried>  (41) 


>  <PLP.part.hbond>  (41) 


>  <PLP.part.metal>  (41) 


>  <PLP.part.nonpolar>  (41) 


>  <PLP.part.repulsive>  (41) 


>  <Version>  (41) 


$$$$
3041|Compound_1878|Compounds_3D_F|sdf|544|dock4|1
     RDKit          3D

 19 20  0  0  0  0  0  0  0  0999 V2000
   -7.9313  -15.2899   11.8803 N   0  0  0  0  0  0  0  0  0  0  0  0
   -8.4622  -14.0985   11.5400 C   0  0  0  0  0  0  0  0  0  0  0  0
   -9.5637  -14.0480   11.0319 O   0  0  0  0  0  0  0  0  0  0  0  0
   -7.7017  -12.8522   11.7861 C   0  0  0  0  0  0  0  0  0  0  0  0
   -8.2336  -11.6735   11.4832 N   0  0  0  0  0  0  0  0  0  0  0  0
   -7.6062  -10.5720   11.6817 N   0  0  0  0  0  0  0  0  0  0  0  0
   -6.3917  -10.5345   12.2002 C   0  0  0  0  0  0  0  0  0  0  0  0
   -5.7493  -11.7111   12.5507 C   0  0  0  0  0  0  0  0  0  0  0  0
   -6.4223  -12.9086   12.3455 C   0  0  0  0  0  0  0  0  0  0  0  0
   -8.6404  -16.4565   11.6457 C   0  0  0  0  0  0  0  0  0  0  0  0
   -9.9221  -16.6170   11.8421 N   0  0  0  0  0  0  0  0  0  0  0  0
  -10.2522  -17.8937   11.5000 C   0  0  0  0  0  0  0  0  0  0  0  0
   -9.1104  -18.5073   11.0856 C   0  0  0  0  0  0  0  0  0  0  0  0
   -8.1203  -17.6022   11.1763 O   0  0  0  0  0  0  0  0  0  0  0  0
  -11.5940  -18.4975   11.5675 C   0  0  0  0  0  0  0  0  0  0  0  0
  -12.0668  -18.8080   12.6431 O   0  0  0  0  0  0  0  0  0  0  0  0
  -12.2961  -18.7068   10.4367 O   0  0  0  0  0  0  0  0  0  0  0  0
  -13.6808  -19.1175   10.5869 C   0  0  0  0  0  0  0  0  0  0  0  0
  -14.2966  -19.3520    9.2055 C   0  0  0  0  0  0  0  0  0  0  0  0
  1  2  1  0
  1 10  1  0
  2  3  2  0
  2  4  1  0
  4  5  2  0
  4  9  1  0
  5  6  1  0
  6  7  2  0
  7  8  1  0
  8  9  2  0
 10 11  2  0
 10 14  1  0
 11 12  1  0
 12 13  2  0
 12 15  1  0
 13 14  1  0
 15 16  2  0
 15 17  1  0
 17 18  1  0
 18 19  1  0
M  END
>  <Gold.Gold.Protein.RotatedWaterAtoms>  (42) 


>  <Gold.Id.Protein>  (42) 


>  <Gold.PLP.Chemscore.CHOScore>  (42) 
0.4679

>  <Gold.PLP.Chemscore.Hbond>  (42) 
1.8080

>  <Gold.PLP.Chemscore.Internal.Correction>  (42) 
0.0230

>  <Gold.PLP.Chemscore.Metal>  (42) 
0.0000

>  <Gold.PLP.Fitness>  (42) 
51.9030

>  <Gold.PLP.PLP>  (42) 
-48.6527

>  <Gold.PLP.ligand.clash>  (42) 
0.0000

>  <Gold.PLP.ligand.torsion>  (42) 
1.8003

>  <Gold.PLP.part.buried>  (42) 
-11.5239

>  <Gold.PLP.part.hbond>  (42) 
-3.0320

>  <Gold.PLP.part.metal>  (42) 
0.0000

>  <Gold.PLP.part.nonpolar>  (42) 
-35.1852

>  <Gold.PLP.part.repulsive>  (42) 
1.0105

>  <Gold.Protein.RotatedAtoms>  (42) 


>  <Gold.Protein.RotatedTorsions>  (42) 


>  <Gold.Protein.RotatedWaterAtoms>  (42) 


>  <Gold.Version>  (42) 
5.3.0

>  <PLP.Chemscore.CHOScore>  (42) 


>  <PLP.Chemscore.Hbond>  (42) 


>  <PLP.Chemscore.Internal.Correction>  (42) 


>  <PLP.Chemscore.Metal>  (42) 


>  <PLP.Fitness>  (42) 


>  <PLP.PLP>  (42) 


>  <PLP.ligand.clash>  (42) 


>  <PLP.ligand.torsion>  (42) 


>  <PLP.part.buried>  (42) 


>  <PLP.part.hbond>  (42) 


>  <PLP.part.metal>  (42) 


>  <PLP.part.nonpolar>  (42) 


>  <PLP.part.repulsive>  (42) 


>  <Version>  (42) 


$$$$
3042|Compound_1879|Compounds_3D_F|sdf|545|dock1|1
     RDKit          3D

 19 20  0  0  0  0  0  0  0  0999 V2000
   -7.8226  -15.8965   11.5049 N   0  0  0  0  0  0  0  0  0  0  0  0
   -8.3084  -14.7030   11.9008 C   0  0  0  0  0  0  0  0  0  0  0  0
   -9.4961  -14.5726   12.1163 O   0  0  0  0  0  0  0  0  0  0  0  0
   -7.3932  -13.5519   12.0727 C   0  0  0  0  0  0  0  0  0  0  0  0
   -6.1217  -13.7517   12.4008 N   0  0  0  0  0  0  0  0  0  0  0  0
   -5.2984  -12.7804   12.5585 N   0  0  0  0  0  0  0  0  0  0  0  0
   -5.6571  -11.5183   12.4043 C   0  0  0  0  0  0  0  0  0  0  0  0
   -6.9623  -11.2039   12.0616 C   0  0  0  0  0  0  0  0  0  0  0  0
   -7.8603  -12.2484   11.8835 C   0  0  0  0  0  0  0  0  0  0  0  0
   -8.6752  -16.9671   11.3402 C   0  0  0  0  0  0  0  0  0  0  0  0
   -8.3571  -18.1499   10.8534 N   0  0  0  0  0  0  0  0  0  0  0  0
   -9.4000  -18.9036   10.8460 N   0  0  0  0  0  0  0  0  0  0  0  0
  -10.4232  -18.2335   11.3265 C   0  0  0  0  0  0  0  0  0  0  0  0
   -9.9809  -16.9984   11.6531 O   0  0  0  0  0  0  0  0  0  0  0  0
  -11.7940  -18.7366   11.4857 C   0  0  0  0  0  0  0  0  0  0  0  0
  -12.3327  -18.6971   12.5749 O   0  0  0  0  0  0  0  0  0  0  0  0
  -12.4537  -19.2415   10.4243 O   0  0  0  0  0  0  0  0  0  0  0  0
  -13.8969  -19.3623   10.5412 C   0  0  0  0  0  0  0  0  0  0  0  0
  -14.4785  -19.8371    9.2081 C   0  0  0  0  0  0  0  0  0  0  0  0
  1  2  1  0
  1 10  1  0
  2  3  2  0
  2  4  1  0
  4  5  2  0
  4  9  1  0
  5  6  1  0
  6  7  2  0
  7  8  1  0
  8  9  2  0
 10 11  2  0
 10 14  1  0
 11 12  1  0
 12 13  2  0
 13 14  1  0
 13 15  1  0
 15 16  2  0
 15 17  1  0
 17 18  1  0
 18 19  1  0
M  END
>  <Gold.Gold.Protein.RotatedWaterAtoms>  (43) 


>  <Gold.Id.Protein>  (43) 


>  <Gold.PLP.Chemscore.CHOScore>  (43) 
0.9921

>  <Gold.PLP.Chemscore.Hbond>  (43) 
1.8800

>  <Gold.PLP.Chemscore.Internal.Correction>  (43) 
0.0343

>  <Gold.PLP.Chemscore.Metal>  (43) 
0.0000

>  <Gold.PLP.Fitness>  (43) 
49.7066

>  <Gold.PLP.PLP>  (43) 
-44.2840

>  <Gold.PLP.ligand.clash>  (43) 
0.0000

>  <Gold.PLP.ligand.torsion>  (43) 
1.6140

>  <Gold.PLP.part.buried>  (43) 
-12.3890

>  <Gold.PLP.part.hbond>  (43) 
-3.0000

>  <Gold.PLP.part.metal>  (43) 
0.0000

>  <Gold.PLP.part.nonpolar>  (43) 
-31.3604

>  <Gold.PLP.part.repulsive>  (43) 
0.8044

>  <Gold.Protein.RotatedAtoms>  (43) 


>  <Gold.Protein.RotatedTorsions>  (43) 


>  <Gold.Protein.RotatedWaterAtoms>  (43) 


>  <Gold.Version>  (43) 
5.3.0

>  <PLP.Chemscore.CHOScore>  (43) 


>  <PLP.Chemscore.Hbond>  (43) 


>  <PLP.Chemscore.Internal.Correction>  (43) 


>  <PLP.Chemscore.Metal>  (43) 


>  <PLP.Fitness>  (43) 


>  <PLP.PLP>  (43) 


>  <PLP.ligand.clash>  (43) 


>  <PLP.ligand.torsion>  (43) 


>  <PLP.part.buried>  (43) 


>  <PLP.part.hbond>  (43) 


>  <PLP.part.metal>  (43) 


>  <PLP.part.nonpolar>  (43) 


>  <PLP.part.repulsive>  (43) 


>  <Version>  (43) 


$$$$
3043|Compound_1879|Compounds_3D_F|sdf|545|dock2|1
     RDKit          3D

 19 20  0  0  0  0  0  0  0  0999 V2000
   -7.8699  -15.3838   11.8031 N   0  0  0  0  0  0  0  0  0  0  0  0
   -8.4234  -14.1578   11.7149 C   0  0  0  0  0  0  0  0  0  0  0  0
   -9.6063  -14.0426   11.4669 O   0  0  0  0  0  0  0  0  0  0  0  0
   -7.5884  -12.9525   11.9207 C   0  0  0  0  0  0  0  0  0  0  0  0
   -8.1026  -11.7426   11.7312 N   0  0  0  0  0  0  0  0  0  0  0  0
   -7.4113  -10.6749   11.8995 N   0  0  0  0  0  0  0  0  0  0  0  0
   -6.1446  -10.7053   12.2734 C   0  0  0  0  0  0  0  0  0  0  0  0
   -5.5152  -11.9191   12.4972 C   0  0  0  0  0  0  0  0  0  0  0  0
   -6.2562  -13.0808   12.3227 C   0  0  0  0  0  0  0  0  0  0  0  0
   -8.6460  -16.5059   11.6067 C   0  0  0  0  0  0  0  0  0  0  0  0
   -8.2573  -17.6356   11.0499 N   0  0  0  0  0  0  0  0  0  0  0  0
   -9.2414  -18.4644   11.0325 N   0  0  0  0  0  0  0  0  0  0  0  0
  -10.2953  -17.8981   11.5761 C   0  0  0  0  0  0  0  0  0  0  0  0
   -9.9351  -16.6511   11.9542 O   0  0  0  0  0  0  0  0  0  0  0  0
  -11.6195  -18.5103   11.7473 C   0  0  0  0  0  0  0  0  0  0  0  0
  -12.4311  -18.0024   12.4966 O   0  0  0  0  0  0  0  0  0  0  0  0
  -11.9341  -19.6345   11.0735 O   0  0  0  0  0  0  0  0  0  0  0  0
  -13.3322  -19.8274   10.7287 C   0  0  0  0  0  0  0  0  0  0  0  0
  -13.7269  -18.8403    9.6284 C   0  0  0  0  0  0  0  0  0  0  0  0
  1  2  1  0
  1 10  1  0
  2  3  2  0
  2  4  1  0
  4  5  2  0
  4  9  1  0
  5  6  1  0
  6  7  2  0
  7  8  1  0
  8  9  2  0
 10 11  2  0
 10 14  1  0
 11 12  1  0
 12 13  2  0
 13 14  1  0
 13 15  1  0
 15 16  2  0
 15 17  1  0
 17 18  1  0
 18 19  1  0
M  END
>  <Gold.Gold.Protein.RotatedWaterAtoms>  (44) 


>  <Gold.Id.Protein>  (44) 


>  <Gold.PLP.Chemscore.CHOScore>  (44) 
0.5958

>  <Gold.PLP.Chemscore.Hbond>  (44) 
1.8960

>  <Gold.PLP.Chemscore.Internal.Correction>  (44) 
0.0343

>  <Gold.PLP.Chemscore.Metal>  (44) 
0.0000

>  <Gold.PLP.Fitness>  (44) 
51.5974

>  <Gold.PLP.PLP>  (44) 
-45.6038

>  <Gold.PLP.ligand.clash>  (44) 
0.0000

>  <Gold.PLP.ligand.torsion>  (44) 
0.7580

>  <Gold.PLP.part.buried>  (44) 
-11.2566

>  <Gold.PLP.part.hbond>  (44) 
-3.2662

>  <Gold.PLP.part.metal>  (44) 
0.0000

>  <Gold.PLP.part.nonpolar>  (44) 
-32.5158

>  <Gold.PLP.part.repulsive>  (44) 
0.6560

>  <Gold.Protein.RotatedAtoms>  (44) 


>  <Gold.Protein.RotatedTorsions>  (44) 


>  <Gold.Protein.RotatedWaterAtoms>  (44) 


>  <Gold.Version>  (44) 
5.3.0

>  <PLP.Chemscore.CHOScore>  (44) 


>  <PLP.Chemscore.Hbond>  (44) 


>  <PLP.Chemscore.Internal.Correction>  (44) 


>  <PLP.Chemscore.Metal>  (44) 


>  <PLP.Fitness>  (44) 


>  <PLP.PLP>  (44) 


>  <PLP.ligand.clash>  (44) 


>  <PLP.ligand.torsion>  (44) 


>  <PLP.part.buried>  (44) 


>  <PLP.part.hbond>  (44) 


>  <PLP.part.metal>  (44) 


>  <PLP.part.nonpolar>  (44) 


>  <PLP.part.repulsive>  (44) 


>  <Version>  (44) 


$$$$
3044|Compound_1879|Compounds_3D_F|sdf|545|dock3|1
     RDKit          3D

 19 20  0  0  0  0  0  0  0  0999 V2000
   -7.8568  -15.7722   11.6884 N   0  0  0  0  0  0  0  0  0  0  0  0
   -8.2775  -14.4962   11.5785 C   0  0  0  0  0  0  0  0  0  0  0  0
   -9.4142  -14.2606   11.2230 O   0  0  0  0  0  0  0  0  0  0  0  0
   -7.3531  -13.3828   11.8916 C   0  0  0  0  0  0  0  0  0  0  0  0
   -7.7311  -12.1247   11.6957 N   0  0  0  0  0  0  0  0  0  0  0  0
   -6.9590  -11.1334   11.9550 N   0  0  0  0  0  0  0  0  0  0  0  0
   -5.7387  -11.2952   12.4348 C   0  0  0  0  0  0  0  0  0  0  0  0
   -5.2498  -12.5693   12.6745 C   0  0  0  0  0  0  0  0  0  0  0  0
   -6.0797  -13.6491   12.4019 C   0  0  0  0  0  0  0  0  0  0  0  0
   -8.7159  -16.8088   11.3922 C   0  0  0  0  0  0  0  0  0  0  0  0
   -8.4392  -17.8640   10.6526 N   0  0  0  0  0  0  0  0  0  0  0  0
   -9.4743  -18.6258   10.5905 N   0  0  0  0  0  0  0  0  0  0  0  0
  -10.4510  -18.0883   11.2862 C   0  0  0  0  0  0  0  0  0  0  0  0
   -9.9860  -16.9323   11.8106 O   0  0  0  0  0  0  0  0  0  0  0  0
  -11.7982  -18.6452   11.4665 C   0  0  0  0  0  0  0  0  0  0  0  0
  -12.3855  -18.4856   12.5190 O   0  0  0  0  0  0  0  0  0  0  0  0
  -12.3825  -19.3326   10.4652 O   0  0  0  0  0  0  0  0  0  0  0  0
  -13.8324  -19.2807   10.3878 C   0  0  0  0  0  0  0  0  0  0  0  0
  -14.2844  -19.7143    8.9918 C   0  0  0  0  0  0  0  0  0  0  0  0
  1  2  1  0
  1 10  1  0
  2  3  2  0
  2  4  1  0
  4  5  2  0
  4  9  1  0
  5  6  1  0
  6  7  2  0
  7  8  1  0
  8  9  2  0
 10 11  2  0
 10 14  1  0
 11 12  1  0
 12 13  2  0
 13 14  1  0
 13 15  1  0
 15 16  2  0
 15 17  1  0
 17 18  1  0
 18 19  1  0
M  END
>  <Gold.Gold.Protein.RotatedWaterAtoms>  (45) 


>  <Gold.Id.Protein>  (45) 


>  <Gold.PLP.Chemscore.CHOScore>  (45) 
0.9376

>  <Gold.PLP.Chemscore.Hbond>  (45) 
1.9435

>  <Gold.PLP.Chemscore.Internal.Correction>  (45) 
0.0343

>  <Gold.PLP.Chemscore.Metal>  (45) 
0.0000

>  <Gold.PLP.Fitness>  (45) 
50.1157

>  <Gold.PLP.PLP>  (45) 
-44.1090

>  <Gold.PLP.ligand.clash>  (45) 
0.0000

>  <Gold.PLP.ligand.torsion>  (45) 
1.3354

>  <Gold.PLP.part.buried>  (45) 
-10.4911

>  <Gold.PLP.part.hbond>  (45) 
-3.0000

>  <Gold.PLP.part.metal>  (45) 
0.0000

>  <Gold.PLP.part.nonpolar>  (45) 
-33.4619

>  <Gold.PLP.part.repulsive>  (45) 
0.6360

>  <Gold.Protein.RotatedAtoms>  (45) 


>  <Gold.Protein.RotatedTorsions>  (45) 


>  <Gold.Protein.RotatedWaterAtoms>  (45) 


>  <Gold.Version>  (45) 
5.3.0

>  <PLP.Chemscore.CHOScore>  (45) 


>  <PLP.Chemscore.Hbond>  (45) 


>  <PLP.Chemscore.Internal.Correction>  (45) 


>  <PLP.Chemscore.Metal>  (45) 


>  <PLP.Fitness>  (45) 


>  <PLP.PLP>  (45) 


>  <PLP.ligand.clash>  (45) 


>  <PLP.ligand.torsion>  (45) 


>  <PLP.part.buried>  (45) 


>  <PLP.part.hbond>  (45) 


>  <PLP.part.metal>  (45) 


>  <PLP.part.nonpolar>  (45) 


>  <PLP.part.repulsive>  (45) 


>  <Version>  (45) 


$$$$
3045|Compound_1880|Compounds_3D_F|sdf|546|dock1|1
     RDKit          3D

 18 19  0  0  0  0  0  0  0  0999 V2000
   -9.1424  -17.7531   11.4903 N   0  0  0  0  0  0  0  0  0  0  0  0
   -8.9647  -16.4848   11.9110 C   0  0  0  0  0  0  0  0  0  0  0  0
   -9.9253  -15.8025   12.2041 O   0  0  0  0  0  0  0  0  0  0  0  0
   -7.5974  -15.9252   12.0154 C   0  0  0  0  0  0  0  0  0  0  0  0
   -6.5394  -16.7161   11.8862 N   0  0  0  0  0  0  0  0  0  0  0  0
   -5.3392  -16.2688   11.9701 N   0  0  0  0  0  0  0  0  0  0  0  0
   -5.0763  -14.9923   12.1890 C   0  0  0  0  0  0  0  0  0  0  0  0
   -6.1122  -14.0843   12.3381 C   0  0  0  0  0  0  0  0  0  0  0  0
   -7.4144  -14.5582   12.2437 C   0  0  0  0  0  0  0  0  0  0  0  0
  -10.4291  -18.2797   11.3867 C   0  0  0  0  0  0  0  0  0  0  0  0
  -11.1947  -18.6805   12.3671 N   0  0  0  0  0  0  0  0  0  0  0  0
  -12.2576  -19.0887   11.9598 O   0  0  0  0  0  0  0  0  0  0  0  0
  -12.3410  -19.0129   10.6241 C   0  0  0  0  0  0  0  0  0  0  0  0
  -11.1727  -18.4835   10.1934 C   0  0  0  0  0  0  0  0  0  0  0  0
  -13.5098  -19.4287    9.7687 C   0  0  0  0  0  0  0  0  0  0  0  0
  -13.0608  -20.5058    8.7804 C   0  0  0  0  0  0  0  0  0  0  0  0
  -14.6209  -19.9873   10.6616 C   0  0  0  0  0  0  0  0  0  0  0  0
  -14.0356  -18.2161    8.9983 C   0  0  0  0  0  0  0  0  0  0  0  0
  1  2  1  0
  1 10  1  0
  2  3  2  0
  2  4  1  0
  4  5  2  0
  4  9  1  0
  5  6  1  0
  6  7  2  0
  7  8  1  0
  8  9  2  0
 10 11  2  0
 10 14  1  0
 11 12  1  0
 12 13  1  0
 13 14  2  0
 13 15  1  0
 15 16  1  0
 15 17  1  0
 15 18  1  0
M  END
>  <Gold.Gold.Protein.RotatedWaterAtoms>  (46) 


>  <Gold.Id.Protein>  (46) 


>  <Gold.PLP.Chemscore.CHOScore>  (46) 
1.3236

>  <Gold.PLP.Chemscore.Hbond>  (46) 
1.8800

>  <Gold.PLP.Chemscore.Internal.Correction>  (46) 
0.0043

>  <Gold.PLP.Chemscore.Metal>  (46) 
0.0000

>  <Gold.PLP.Fitness>  (46) 
49.2033

>  <Gold.PLP.PLP>  (46) 
-41.0942

>  <Gold.PLP.ligand.clash>  (46) 
0.0000

>  <Gold.PLP.ligand.torsion>  (46) 
0.7530

>  <Gold.PLP.part.buried>  (46) 
-7.5950

>  <Gold.PLP.part.hbond>  (46) 
-1.4636

>  <Gold.PLP.part.metal>  (46) 
0.0000

>  <Gold.PLP.part.nonpolar>  (46) 
-32.5985

>  <Gold.PLP.part.repulsive>  (46) 
0.3206

>  <Gold.Protein.RotatedAtoms>  (46) 


>  <Gold.Protein.RotatedTorsions>  (46) 


>  <Gold.Protein.RotatedWaterAtoms>  (46) 


>  <Gold.Version>  (46) 
5.3.0

>  <PLP.Chemscore.CHOScore>  (46) 


>  <PLP.Chemscore.Hbond>  (46) 


>  <PLP.Chemscore.Internal.Correction>  (46) 


>  <PLP.Chemscore.Metal>  (46) 


>  <PLP.Fitness>  (46) 


>  <PLP.PLP>  (46) 


>  <PLP.ligand.clash>  (46) 


>  <PLP.ligand.torsion>  (46) 


>  <PLP.part.buried>  (46) 


>  <PLP.part.hbond>  (46) 


>  <PLP.part.metal>  (46) 


>  <PLP.part.nonpolar>  (46) 


>  <PLP.part.repulsive>  (46) 


>  <Version>  (46) 


$$$$
3046|Compound_1880|Compounds_3D_F|sdf|546|dock2|1
     RDKit          3D

 18 19  0  0  0  0  0  0  0  0999 V2000
   -9.2570  -17.7122   11.5242 N   0  0  0  0  0  0  0  0  0  0  0  0
   -8.9953  -16.4525   11.9263 C   0  0  0  0  0  0  0  0  0  0  0  0
   -9.9084  -15.7026   12.2055 O   0  0  0  0  0  0  0  0  0  0  0  0
   -7.5936  -15.9847   12.0271 C   0  0  0  0  0  0  0  0  0  0  0  0
   -6.5903  -16.8310   11.8302 N   0  0  0  0  0  0  0  0  0  0  0  0
   -5.3629  -16.4637   11.9087 N   0  0  0  0  0  0  0  0  0  0  0  0
   -5.0158  -15.2198   12.1889 C   0  0  0  0  0  0  0  0  0  0  0  0
   -5.9893  -14.2592   12.4113 C   0  0  0  0  0  0  0  0  0  0  0  0
   -7.3203  -14.6461   12.3235 C   0  0  0  0  0  0  0  0  0  0  0  0
  -10.5760  -18.1524   11.4240 C   0  0  0  0  0  0  0  0  0  0  0  0
  -11.5792  -17.8069   12.1869 N   0  0  0  0  0  0  0  0  0  0  0  0
  -12.6014  -18.3583   11.8502 O   0  0  0  0  0  0  0  0  0  0  0  0
  -12.4087  -19.1628   10.7956 C   0  0  0  0  0  0  0  0  0  0  0  0
  -11.0997  -19.0635   10.4679 C   0  0  0  0  0  0  0  0  0  0  0  0
  -13.4476  -20.0076   10.1044 C   0  0  0  0  0  0  0  0  0  0  0  0
  -14.1254  -20.9205   11.1270 C   0  0  0  0  0  0  0  0  0  0  0  0
  -14.4962  -19.0980    9.4588 C   0  0  0  0  0  0  0  0  0  0  0  0
  -12.7771  -20.8594    9.0249 C   0  0  0  0  0  0  0  0  0  0  0  0
  1  2  1  0
  1 10  1  0
  2  3  2  0
  2  4  1  0
  4  5  2  0
  4  9  1  0
  5  6  1  0
  6  7  2  0
  7  8  1  0
  8  9  2  0
 10 11  2  0
 10 14  1  0
 11 12  1  0
 12 13  1  0
 13 14  2  0
 13 15  1  0
 15 16  1  0
 15 17  1  0
 15 18  1  0
M  END
>  <Gold.Gold.Protein.RotatedWaterAtoms>  (47) 


>  <Gold.Id.Protein>  (47) 


>  <Gold.PLP.Chemscore.CHOScore>  (47) 
1.2312

>  <Gold.PLP.Chemscore.Hbond>  (47) 
1.8640

>  <Gold.PLP.Chemscore.Internal.Correction>  (47) 
0.0043

>  <Gold.PLP.Chemscore.Metal>  (47) 
0.0000

>  <Gold.PLP.Fitness>  (47) 
47.0076

>  <Gold.PLP.PLP>  (47) 
-38.3670

>  <Gold.PLP.ligand.clash>  (47) 
0.0000

>  <Gold.PLP.ligand.torsion>  (47) 
0.3247

>  <Gold.PLP.part.buried>  (47) 
-7.8309

>  <Gold.PLP.part.hbond>  (47) 
-2.4314

>  <Gold.PLP.part.metal>  (47) 
0.0000

>  <Gold.PLP.part.nonpolar>  (47) 
-28.1872

>  <Gold.PLP.part.repulsive>  (47) 
0.3325

>  <Gold.Protein.RotatedAtoms>  (47) 


>  <Gold.Protein.RotatedTorsions>  (47) 


>  <Gold.Protein.RotatedWaterAtoms>  (47) 


>  <Gold.Version>  (47) 
5.3.0

>  <PLP.Chemscore.CHOScore>  (47) 


>  <PLP.Chemscore.Hbond>  (47) 


>  <PLP.Chemscore.Internal.Correction>  (47) 


>  <PLP.Chemscore.Metal>  (47) 


>  <PLP.Fitness>  (47) 


>  <PLP.PLP>  (47) 


>  <PLP.ligand.clash>  (47) 


>  <PLP.ligand.torsion>  (47) 


>  <PLP.part.buried>  (47) 


>  <PLP.part.hbond>  (47) 


>  <PLP.part.metal>  (47) 


>  <PLP.part.nonpolar>  (47) 


>  <PLP.part.repulsive>  (47) 


>  <Version>  (47) 


$$$$
3047|Compound_1880|Compounds_3D_F|sdf|546|dock3|1
     RDKit          3D

 18 19  0  0  0  0  0  0  0  0999 V2000
   -9.0626  -17.7329   11.5403 N   0  0  0  0  0  0  0  0  0  0  0  0
   -8.8252  -16.4565   11.9028 C   0  0  0  0  0  0  0  0  0  0  0  0
   -9.7534  -15.7093   12.1358 O   0  0  0  0  0  0  0  0  0  0  0  0
   -7.4320  -15.9671   12.0165 C   0  0  0  0  0  0  0  0  0  0  0  0
   -6.4146  -16.7787   11.7563 N   0  0  0  0  0  0  0  0  0  0  0  0
   -5.1939  -16.3919   11.8435 N   0  0  0  0  0  0  0  0  0  0  0  0
   -4.8680  -15.1606   12.1962 C   0  0  0  0  0  0  0  0  0  0  0  0
   -5.8576  -14.2359   12.4887 C   0  0  0  0  0  0  0  0  0  0  0  0
   -7.1816  -14.6439   12.3921 C   0  0  0  0  0  0  0  0  0  0  0  0
  -10.3736  -18.1937   11.4279 C   0  0  0  0  0  0  0  0  0  0  0  0
  -11.2235  -18.3885   12.4013 N   0  0  0  0  0  0  0  0  0  0  0  0
  -12.2849  -18.7939   11.9873 O   0  0  0  0  0  0  0  0  0  0  0  0
  -12.2809  -18.9266   10.6535 C   0  0  0  0  0  0  0  0  0  0  0  0
  -11.0548  -18.5410   10.2305 C   0  0  0  0  0  0  0  0  0  0  0  0
  -13.4208  -19.4045    9.7916 C   0  0  0  0  0  0  0  0  0  0  0  0
  -13.9028  -18.2580    8.9017 C   0  0  0  0  0  0  0  0  0  0  0  0
  -12.9438  -20.5650    8.9144 C   0  0  0  0  0  0  0  0  0  0  0  0
  -14.5709  -19.8776   10.6824 C   0  0  0  0  0  0  0  0  0  0  0  0
  1  2  1  0
  1 10  1  0
  2  3  2  0
  2  4  1  0
  4  5  2  0
  4  9  1  0
  5  6  1  0
  6  7  2  0
  7  8  1  0
  8  9  2  0
 10 11  2  0
 10 14  1  0
 11 12  1  0
 12 13  1  0
 13 14  2  0
 13 15  1  0
 15 16  1  0
 15 17  1  0
 15 18  1  0
M  END
>  <Gold.Gold.Protein.RotatedWaterAtoms>  (48) 


>  <Gold.Id.Protein>  (48) 


>  <Gold.PLP.Chemscore.CHOScore>  (48) 
1.2804

>  <Gold.PLP.Chemscore.Hbond>  (48) 
1.7840

>  <Gold.PLP.Chemscore.Internal.Correction>  (48) 
0.0043

>  <Gold.PLP.Chemscore.Metal>  (48) 
0.0000

>  <Gold.PLP.Fitness>  (48) 
48.9582

>  <Gold.PLP.PLP>  (48) 
-41.2988

>  <Gold.PLP.ligand.clash>  (48) 
0.0000

>  <Gold.PLP.ligand.torsion>  (48) 
0.7690

>  <Gold.PLP.part.buried>  (48) 
-7.1041

>  <Gold.PLP.part.hbond>  (48) 
-1.7388

>  <Gold.PLP.part.metal>  (48) 
0.0000

>  <Gold.PLP.part.nonpolar>  (48) 
-32.9504

>  <Gold.PLP.part.repulsive>  (48) 
0.3442

>  <Gold.Protein.RotatedAtoms>  (48) 


>  <Gold.Protein.RotatedTorsions>  (48) 


>  <Gold.Protein.RotatedWaterAtoms>  (48) 


>  <Gold.Version>  (48) 
5.3.0

>  <PLP.Chemscore.CHOScore>  (48) 


>  <PLP.Chemscore.Hbond>  (48) 


>  <PLP.Chemscore.Internal.Correction>  (48) 


>  <PLP.Chemscore.Metal>  (48) 


>  <PLP.Fitness>  (48) 


>  <PLP.PLP>  (48) 


>  <PLP.ligand.clash>  (48) 


>  <PLP.ligand.torsion>  (48) 


>  <PLP.part.buried>  (48) 


>  <PLP.part.hbond>  (48) 


>  <PLP.part.metal>  (48) 


>  <PLP.part.nonpolar>  (48) 


>  <PLP.part.repulsive>  (48) 


>  <Version>  (48) 


$$$$
3048|Compound_1881|Compounds_3D_F|sdf|547|dock1|1
     RDKit          3D

 18 19  0  0  0  0  0  0  0  0999 V2000
   -8.9322  -16.5934   11.0436 N   0  0  0  0  0  0  0  0  0  0  0  0
   -7.7417  -16.1772   11.5198 C   0  0  0  0  0  0  0  0  0  0  0  0
   -6.8626  -16.9847   11.7470 O   0  0  0  0  0  0  0  0  0  0  0  0
   -7.5067  -14.7356   11.7654 C   0  0  0  0  0  0  0  0  0  0  0  0
   -8.4533  -13.8471   11.4893 N   0  0  0  0  0  0  0  0  0  0  0  0
   -8.2875  -12.5899   11.6882 N   0  0  0  0  0  0  0  0  0  0  0  0
   -7.1655  -12.0962   12.1821 C   0  0  0  0  0  0  0  0  0  0  0  0
   -6.1158  -12.9415   12.5035 C   0  0  0  0  0  0  0  0  0  0  0  0
   -6.2877  -14.3040   12.2965 C   0  0  0  0  0  0  0  0  0  0  0  0
   -9.1561  -17.9497   10.8169 C   0  0  0  0  0  0  0  0  0  0  0  0
   -8.2874  -18.9061   10.9914 N   0  0  0  0  0  0  0  0  0  0  0  0
   -8.9139  -20.1306   10.6497 O   0  0  0  0  0  0  0  0  0  0  0  0
  -10.2410  -19.8352   10.2519 N   0  0  0  0  0  0  0  0  0  0  0  0
  -10.4104  -18.5460   10.3487 C   0  0  0  0  0  0  0  0  0  0  0  0
  -11.5830  -17.8521   10.0486 N   0  0  0  0  0  0  0  0  0  0  0  0
  -12.6334  -18.5038    9.5128 C   0  0  0  0  0  0  0  0  0  0  0  0
  -12.5595  -19.6940    9.2903 O   0  0  0  0  0  0  0  0  0  0  0  0
  -13.8998  -17.7539    9.1880 C   0  0  0  0  0  0  0  0  0  0  0  0
  1  2  1  0
  1 10  1  0
  2  3  2  0
  2  4  1  0
  4  5  2  0
  4  9  1  0
  5  6  1  0
  6  7  2  0
  7  8  1  0
  8  9  2  0
 10 11  2  0
 10 14  1  0
 11 12  1  0
 12 13  1  0
 13 14  2  0
 14 15  1  0
 15 16  1  0
 16 17  2  0
 16 18  1  0
M  END
>  <Gold.Gold.Protein.RotatedWaterAtoms>  (49) 


>  <Gold.Id.Protein>  (49) 


>  <Gold.PLP.Chemscore.CHOScore>  (49) 
0.0000

>  <Gold.PLP.Chemscore.Hbond>  (49) 
1.0000

>  <Gold.PLP.Chemscore.Internal.Correction>  (49) 
0.0012

>  <Gold.PLP.Chemscore.Metal>  (49) 
0.0000

>  <Gold.PLP.Fitness>  (49) 
40.4479

>  <Gold.PLP.PLP>  (49) 
-37.4668

>  <Gold.PLP.ligand.clash>  (49) 
0.0000

>  <Gold.PLP.ligand.torsion>  (49) 
0.0100

>  <Gold.PLP.part.buried>  (49) 
-10.1251

>  <Gold.PLP.part.hbond>  (49) 
-1.4481

>  <Gold.PLP.part.metal>  (49) 
0.0000

>  <Gold.PLP.part.nonpolar>  (49) 
-26.6658

>  <Gold.PLP.part.repulsive>  (49) 
0.3397

>  <Gold.Protein.RotatedAtoms>  (49) 


>  <Gold.Protein.RotatedTorsions>  (49) 


>  <Gold.Protein.RotatedWaterAtoms>  (49) 


>  <Gold.Version>  (49) 
5.3.0

>  <PLP.Chemscore.CHOScore>  (49) 


>  <PLP.Chemscore.Hbond>  (49) 


>  <PLP.Chemscore.Internal.Correction>  (49) 


>  <PLP.Chemscore.Metal>  (49) 


>  <PLP.Fitness>  (49) 


>  <PLP.PLP>  (49) 


>  <PLP.ligand.clash>  (49) 


>  <PLP.ligand.torsion>  (49) 


>  <PLP.part.buried>  (49) 


>  <PLP.part.hbond>  (49) 


>  <PLP.part.metal>  (49) 


>  <PLP.part.nonpolar>  (49) 


>  <PLP.part.repulsive>  (49) 


>  <Version>  (49) 


$$$$
3049|Compound_1881|Compounds_3D_F|sdf|547|dock2|1
     RDKit          3D

 18 19  0  0  0  0  0  0  0  0999 V2000
   -9.0859  -16.6480   11.0908 N   0  0  0  0  0  0  0  0  0  0  0  0
   -7.8483  -16.1882   11.3628 C   0  0  0  0  0  0  0  0  0  0  0  0
   -6.9036  -16.9524   11.3658 O   0  0  0  0  0  0  0  0  0  0  0  0
   -7.6415  -14.7515   11.6576 C   0  0  0  0  0  0  0  0  0  0  0  0
   -8.6234  -13.8804   11.4612 N   0  0  0  0  0  0  0  0  0  0  0  0
   -8.4829  -12.6280   11.7048 N   0  0  0  0  0  0  0  0  0  0  0  0
   -7.3533  -12.1223   12.1683 C   0  0  0  0  0  0  0  0  0  0  0  0
   -6.2674  -12.9491   12.4072 C   0  0  0  0  0  0  0  0  0  0  0  0
   -6.4116  -14.3066   12.1514 C   0  0  0  0  0  0  0  0  0  0  0  0
   -9.2824  -18.0001   10.8183 C   0  0  0  0  0  0  0  0  0  0  0  0
   -8.4077  -18.9498   10.9990 N   0  0  0  0  0  0  0  0  0  0  0  0
   -9.0040  -20.1722   10.6000 O   0  0  0  0  0  0  0  0  0  0  0  0
  -10.3192  -19.8826   10.1606 N   0  0  0  0  0  0  0  0  0  0  0  0
  -10.5099  -18.5989   10.2866 C   0  0  0  0  0  0  0  0  0  0  0  0
  -11.6799  -17.9118    9.9616 N   0  0  0  0  0  0  0  0  0  0  0  0
  -12.7687  -18.5913    9.5520 C   0  0  0  0  0  0  0  0  0  0  0  0
  -12.7319  -19.8007    9.4649 O   0  0  0  0  0  0  0  0  0  0  0  0
  -14.0324  -17.8488    9.2003 C   0  0  0  0  0  0  0  0  0  0  0  0
  1  2  1  0
  1 10  1  0
  2  3  2  0
  2  4  1  0
  4  5  2  0
  4  9  1  0
  5  6  1  0
  6  7  2  0
  7  8  1  0
  8  9  2  0
 10 11  2  0
 10 14  1  0
 11 12  1  0
 12 13  1  0
 13 14  2  0
 14 15  1  0
 15 16  1  0
 16 17  2  0
 16 18  1  0
M  END
>  <Gold.Gold.Protein.RotatedWaterAtoms>  (50) 


>  <Gold.Id.Protein>  (50) 


>  <Gold.PLP.Chemscore.CHOScore>  (50) 
0.0000

>  <Gold.PLP.Chemscore.Hbond>  (50) 
1.3932

>  <Gold.PLP.Chemscore.Internal.Correction>  (50) 
0.0012

>  <Gold.PLP.Chemscore.Metal>  (50) 
0.0000

>  <Gold.PLP.Fitness>  (50) 
40.6662

>  <Gold.PLP.PLP>  (50) 
-36.6476

>  <Gold.PLP.ligand.clash>  (50) 
0.0000

>  <Gold.PLP.ligand.torsion>  (50) 
0.0812

>  <Gold.PLP.part.buried>  (50) 
-9.7204

>  <Gold.PLP.part.hbond>  (50) 
-1.8121

>  <Gold.PLP.part.metal>  (50) 
0.0000

>  <Gold.PLP.part.nonpolar>  (50) 
-25.8274

>  <Gold.PLP.part.repulsive>  (50) 
0.3448

>  <Gold.Protein.RotatedAtoms>  (50) 


>  <Gold.Protein.RotatedTorsions>  (50) 


>  <Gold.Protein.RotatedWaterAtoms>  (50) 


>  <Gold.Version>  (50) 
5.3.0

>  <PLP.Chemscore.CHOScore>  (50) 


>  <PLP.Chemscore.Hbond>  (50) 


>  <PLP.Chemscore.Internal.Correction>  (50) 


>  <PLP.Chemscore.Metal>  (50) 


>  <PLP.Fitness>  (50) 


>  <PLP.PLP>  (50) 


>  <PLP.ligand.clash>  (50) 


>  <PLP.ligand.torsion>  (50) 


>  <PLP.part.buried>  (50) 


>  <PLP.part.hbond>  (50) 


>  <PLP.part.metal>  (50) 


>  <PLP.part.nonpolar>  (50) 


>  <PLP.part.repulsive>  (50) 


>  <Version>  (50) 


$$$$
3050|Compound_1881|Compounds_3D_F|sdf|547|dock3|1
     RDKit          3D

 18 19  0  0  0  0  0  0  0  0999 V2000
   -8.6154  -16.1723   10.7971 N   0  0  0  0  0  0  0  0  0  0  0  0
   -7.6500  -15.6296   11.5657 C   0  0  0  0  0  0  0  0  0  0  0  0
   -6.8655  -16.3482   12.1527 O   0  0  0  0  0  0  0  0  0  0  0  0
   -7.5468  -14.1577   11.6934 C   0  0  0  0  0  0  0  0  0  0  0  0
   -8.5568  -13.3815   11.3207 N   0  0  0  0  0  0  0  0  0  0  0  0
   -8.5054  -12.1025   11.4160 N   0  0  0  0  0  0  0  0  0  0  0  0
   -7.4454  -11.4732   11.8924 C   0  0  0  0  0  0  0  0  0  0  0  0
   -6.3376  -12.1936   12.3090 C   0  0  0  0  0  0  0  0  0  0  0  0
   -6.3860  -13.5784   12.2144 C   0  0  0  0  0  0  0  0  0  0  0  0
   -8.7166  -17.5570   10.6802 C   0  0  0  0  0  0  0  0  0  0  0  0
   -7.7488  -18.4110   10.8639 N   0  0  0  0  0  0  0  0  0  0  0  0
   -8.2697  -19.7116   10.6494 O   0  0  0  0  0  0  0  0  0  0  0  0
   -9.6403  -19.5739   10.3191 N   0  0  0  0  0  0  0  0  0  0  0  0
   -9.9306  -18.3029   10.3369 C   0  0  0  0  0  0  0  0  0  0  0  0
  -11.1816  -17.7476   10.0660 N   0  0  0  0  0  0  0  0  0  0  0  0
  -12.1443  -18.5000    9.4985 C   0  0  0  0  0  0  0  0  0  0  0  0
  -11.9234  -19.6603    9.2221 O   0  0  0  0  0  0  0  0  0  0  0  0
  -13.4954  -17.8998    9.2053 C   0  0  0  0  0  0  0  0  0  0  0  0
  1  2  1  0
  1 10  1  0
  2  3  2  0
  2  4  1  0
  4  5  2  0
  4  9  1  0
  5  6  1  0
  6  7  2  0
  7  8  1  0
  8  9  2  0
 10 11  2  0
 10 14  1  0
 11 12  1  0
 12 13  1  0
 13 14  2  0
 14 15  1  0
 15 16  1  0
 16 17  2  0
 16 18  1  0
M  END
>  <Gold.Gold.Protein.RotatedWaterAtoms>  (51) 


>  <Gold.Id.Protein>  (51) 


>  <Gold.PLP.Chemscore.CHOScore>  (51) 
0.0000

>  <Gold.PLP.Chemscore.Hbond>  (51) 
1.0000

>  <Gold.PLP.Chemscore.Internal.Correction>  (51) 
0.0012

>  <Gold.PLP.Chemscore.Metal>  (51) 
0.0000

>  <Gold.PLP.Fitness>  (51) 
39.1764

>  <Gold.PLP.PLP>  (51) 
-36.7204

>  <Gold.PLP.ligand.clash>  (51) 
0.0000

>  <Gold.PLP.ligand.torsion>  (51) 
0.2726

>  <Gold.PLP.part.buried>  (51) 
-9.9196

>  <Gold.PLP.part.hbond>  (51) 
-1.1593

>  <Gold.PLP.part.metal>  (51) 
0.0000

>  <Gold.PLP.part.nonpolar>  (51) 
-26.0955

>  <Gold.PLP.part.repulsive>  (51) 
0.3754

>  <Gold.Protein.RotatedAtoms>  (51) 


>  <Gold.Protein.RotatedTorsions>  (51) 


>  <Gold.Protein.RotatedWaterAtoms>  (51) 


>  <Gold.Version>  (51) 
5.3.0

>  <PLP.Chemscore.CHOScore>  (51) 


>  <PLP.Chemscore.Hbond>  (51) 


>  <PLP.Chemscore.Internal.Correction>  (51) 


>  <PLP.Chemscore.Metal>  (51) 


>  <PLP.Fitness>  (51) 


>  <PLP.PLP>  (51) 


>  <PLP.ligand.clash>  (51) 


>  <PLP.ligand.torsion>  (51) 


>  <PLP.part.buried>  (51) 


>  <PLP.part.hbond>  (51) 


>  <PLP.part.metal>  (51) 


>  <PLP.part.nonpolar>  (51) 


>  <PLP.part.repulsive>  (51) 


>  <Version>  (51) 


$$$$
3051|Compound_1882|Compounds_3D_F|sdf|548|dock1|1
     RDKit          3D

 17 18  0  0  0  0  0  0  0  0999 V2000
  -14.6492  -21.9320   13.1715 O   0  0  0  0  0  0  0  0  0  0  0  0
  -13.5836  -21.7177   12.3754 C   0  0  0  0  0  0  0  0  0  0  0  0
  -13.1419  -22.6224   11.6948 O   0  0  0  0  0  0  0  0  0  0  0  0
  -12.9521  -20.3842   12.3309 C   0  0  0  0  0  0  0  0  0  0  0  0
  -11.7183  -20.1228   11.9479 N   0  0  0  0  0  0  0  0  0  0  0  0
  -11.4870  -18.8166   12.0353 C   0  0  0  0  0  0  0  0  0  0  0  0
  -12.5714  -18.2155   12.4770 N   0  0  0  0  0  0  0  0  0  0  0  0
  -13.5400  -19.2134   12.6718 N   0  0  0  0  0  0  0  0  0  0  0  0
  -10.2841  -18.1834   11.7097 N   0  0  0  0  0  0  0  0  0  0  0  0
  -10.0528  -16.9217   12.1269 C   0  0  0  0  0  0  0  0  0  0  0  0
  -10.8895  -16.3360   12.7849 O   0  0  0  0  0  0  0  0  0  0  0  0
   -8.7785  -16.2509   11.7817 C   0  0  0  0  0  0  0  0  0  0  0  0
   -7.7426  -16.9636   11.3540 N   0  0  0  0  0  0  0  0  0  0  0  0
   -6.6221  -16.4176   11.0455 N   0  0  0  0  0  0  0  0  0  0  0  0
   -6.4233  -15.1138   11.1334 C   0  0  0  0  0  0  0  0  0  0  0  0
   -7.4434  -14.2837   11.5688 C   0  0  0  0  0  0  0  0  0  0  0  0
   -8.6606  -14.8630   11.9002 C   0  0  0  0  0  0  0  0  0  0  0  0
  1  2  1  0
  2  3  2  0
  2  4  1  0
  4  5  2  0
  4  8  1  0
  5  6  1  0
  6  7  2  0
  6  9  1  0
  7  8  1  0
  9 10  1  0
 10 11  2  0
 10 12  1  0
 12 13  2  0
 12 17  1  0
 13 14  1  0
 14 15  2  0
 15 16  1  0
 16 17  2  0
M  END
>  <Gold.Gold.Protein.RotatedWaterAtoms>  (52) 


>  <Gold.Id.Protein>  (52) 


>  <Gold.PLP.Chemscore.CHOScore>  (52) 
0.7125

>  <Gold.PLP.Chemscore.Hbond>  (52) 
5.0843

>  <Gold.PLP.Chemscore.Internal.Correction>  (52) 
0.0022

>  <Gold.PLP.Chemscore.Metal>  (52) 
0.0000

>  <Gold.PLP.Fitness>  (52) 
43.8276

>  <Gold.PLP.PLP>  (52) 
-27.2072

>  <Gold.PLP.ligand.clash>  (52) 
0.0000

>  <Gold.PLP.ligand.torsion>  (52) 
0.3860

>  <Gold.PLP.part.buried>  (52) 
-3.5530

>  <Gold.PLP.part.hbond>  (52) 
-6.4873

>  <Gold.PLP.part.metal>  (52) 
0.0000

>  <Gold.PLP.part.nonpolar>  (52) 
-18.1684

>  <Gold.PLP.part.repulsive>  (52) 
0.4365

>  <Gold.Protein.RotatedAtoms>  (52) 


>  <Gold.Protein.RotatedTorsions>  (52) 


>  <Gold.Protein.RotatedWaterAtoms>  (52) 


>  <Gold.Version>  (52) 
5.3.0

>  <PLP.Chemscore.CHOScore>  (52) 


>  <PLP.Chemscore.Hbond>  (52) 


>  <PLP.Chemscore.Internal.Correction>  (52) 


>  <PLP.Chemscore.Metal>  (52) 


>  <PLP.Fitness>  (52) 


>  <PLP.PLP>  (52) 


>  <PLP.ligand.clash>  (52) 


>  <PLP.ligand.torsion>  (52) 


>  <PLP.part.buried>  (52) 


>  <PLP.part.hbond>  (52) 


>  <PLP.part.metal>  (52) 


>  <PLP.part.nonpolar>  (52) 


>  <PLP.part.repulsive>  (52) 


>  <Version>  (52) 


$$$$
3052|Compound_1882|Compounds_3D_F|sdf|548|dock2|1
     RDKit          3D

 17 18  0  0  0  0  0  0  0  0999 V2000
  -13.7530  -18.2453   12.8080 O   0  0  0  0  0  0  0  0  0  0  0  0
  -13.0778  -19.2792   12.2691 C   0  0  0  0  0  0  0  0  0  0  0  0
  -13.6000  -20.3742   12.1966 O   0  0  0  0  0  0  0  0  0  0  0  0
  -11.7035  -19.0819   11.7678 C   0  0  0  0  0  0  0  0  0  0  0  0
  -10.8758  -18.1226   12.1310 N   0  0  0  0  0  0  0  0  0  0  0  0
   -9.7246  -18.2504   11.4784 C   0  0  0  0  0  0  0  0  0  0  0  0
   -9.7939  -19.2968   10.6831 N   0  0  0  0  0  0  0  0  0  0  0  0
  -11.0695  -19.8575   10.8571 N   0  0  0  0  0  0  0  0  0  0  0  0
   -8.6178  -17.4079   11.6158 N   0  0  0  0  0  0  0  0  0  0  0  0
   -8.7912  -16.1241   11.9917 C   0  0  0  0  0  0  0  0  0  0  0  0
   -9.9087  -15.7004   12.2103 O   0  0  0  0  0  0  0  0  0  0  0  0
   -7.6186  -15.2315   12.1371 C   0  0  0  0  0  0  0  0  0  0  0  0
   -6.3892  -15.7331   12.1076 N   0  0  0  0  0  0  0  0  0  0  0  0
   -5.3485  -14.9910   12.2304 N   0  0  0  0  0  0  0  0  0  0  0  0
   -5.4293  -13.6820   12.3954 C   0  0  0  0  0  0  0  0  0  0  0  0
   -6.6680  -13.0629   12.4388 C   0  0  0  0  0  0  0  0  0  0  0  0
   -7.7996  -13.8551   12.3019 C   0  0  0  0  0  0  0  0  0  0  0  0
  1  2  1  0
  2  3  2  0
  2  4  1  0
  4  5  2  0
  4  8  1  0
  5  6  1  0
  6  7  2  0
  6  9  1  0
  7  8  1  0
  9 10  1  0
 10 11  2  0
 10 12  1  0
 12 13  2  0
 12 17  1  0
 13 14  1  0
 14 15  2  0
 15 16  1  0
 16 17  2  0
M  END
>  <Gold.Gold.Protein.RotatedWaterAtoms>  (53) 


>  <Gold.Id.Protein>  (53) 


>  <Gold.PLP.Chemscore.CHOScore>  (53) 
0.9988

>  <Gold.PLP.Chemscore.Hbond>  (53) 
2.6115

>  <Gold.PLP.Chemscore.Internal.Correction>  (53) 
0.0022

>  <Gold.PLP.Chemscore.Metal>  (53) 
0.0000

>  <Gold.PLP.Fitness>  (53) 
43.8005

>  <Gold.PLP.PLP>  (53) 
-33.8126

>  <Gold.PLP.ligand.clash>  (53) 
0.0000

>  <Gold.PLP.ligand.torsion>  (53) 
0.4226

>  <Gold.PLP.part.buried>  (53) 
-9.9778

>  <Gold.PLP.part.hbond>  (53) 
-2.3190

>  <Gold.PLP.part.metal>  (53) 
0.0000

>  <Gold.PLP.part.nonpolar>  (53) 
-23.3913

>  <Gold.PLP.part.repulsive>  (53) 
0.8742

>  <Gold.Protein.RotatedAtoms>  (53) 


>  <Gold.Protein.RotatedTorsions>  (53) 


>  <Gold.Protein.RotatedWaterAtoms>  (53) 


>  <Gold.Version>  (53) 
5.3.0

>  <PLP.Chemscore.CHOScore>  (53) 


>  <PLP.Chemscore.Hbond>  (53) 


>  <PLP.Chemscore.Internal.Correction>  (53) 


>  <PLP.Chemscore.Metal>  (53) 


>  <PLP.Fitness>  (53) 


>  <PLP.PLP>  (53) 


>  <PLP.ligand.clash>  (53) 


>  <PLP.ligand.torsion>  (53) 


>  <PLP.part.buried>  (53) 


>  <PLP.part.hbond>  (53) 


>  <PLP.part.metal>  (53) 


>  <PLP.part.nonpolar>  (53) 


>  <PLP.part.repulsive>  (53) 


>  <Version>  (53) 


$$$$
3053|Compound_1882|Compounds_3D_F|sdf|548|dock3|1
     RDKit          3D

 17 18  0  0  0  0  0  0  0  0999 V2000
  -13.8254  -19.8968   11.9182 O   0  0  0  0  0  0  0  0  0  0  0  0
  -13.1446  -18.7667   12.1915 C   0  0  0  0  0  0  0  0  0  0  0  0
  -13.6836  -17.8658   12.8036 O   0  0  0  0  0  0  0  0  0  0  0  0
  -11.7446  -18.6228   11.7465 C   0  0  0  0  0  0  0  0  0  0  0  0
  -10.9094  -17.6700   12.1099 N   0  0  0  0  0  0  0  0  0  0  0  0
   -9.7338  -17.8514   11.5163 C   0  0  0  0  0  0  0  0  0  0  0  0
   -9.7944  -18.9267   10.7597 N   0  0  0  0  0  0  0  0  0  0  0  0
  -11.0907  -19.4490   10.8966 N   0  0  0  0  0  0  0  0  0  0  0  0
   -8.6128  -17.0310   11.6716 N   0  0  0  0  0  0  0  0  0  0  0  0
   -8.7681  -15.7379   12.0226 C   0  0  0  0  0  0  0  0  0  0  0  0
   -9.8815  -15.2866   12.2031 O   0  0  0  0  0  0  0  0  0  0  0  0
   -7.5805  -14.8688   12.1870 C   0  0  0  0  0  0  0  0  0  0  0  0
   -6.3641  -15.4003   12.2294 N   0  0  0  0  0  0  0  0  0  0  0  0
   -5.3110  -14.6793   12.3709 N   0  0  0  0  0  0  0  0  0  0  0  0
   -5.3655  -13.3635   12.4850 C   0  0  0  0  0  0  0  0  0  0  0  0
   -6.5887  -12.7138   12.4518 C   0  0  0  0  0  0  0  0  0  0  0  0
   -7.7332  -13.4833   12.2941 C   0  0  0  0  0  0  0  0  0  0  0  0
  1  2  1  0
  2  3  2  0
  2  4  1  0
  4  5  2  0
  4  8  1  0
  5  6  1  0
  6  7  2  0
  6  9  1  0
  7  8  1  0
  9 10  1  0
 10 11  2  0
 10 12  1  0
 12 13  2  0
 12 17  1  0
 13 14  1  0
 14 15  2  0
 15 16  1  0
 16 17  2  0
M  END
>  <Gold.Gold.Protein.RotatedWaterAtoms>  (54) 


>  <Gold.Id.Protein>  (54) 


>  <Gold.PLP.Chemscore.CHOScore>  (54) 
0.9771

>  <Gold.PLP.Chemscore.Hbond>  (54) 
2.5005

>  <Gold.PLP.Chemscore.Internal.Correction>  (54) 
0.0011

>  <Gold.PLP.Chemscore.Metal>  (54) 
0.0000

>  <Gold.PLP.Fitness>  (54) 
45.0982

>  <Gold.PLP.PLP>  (54) 
-35.1756

>  <Gold.PLP.ligand.clash>  (54) 
0.0000

>  <Gold.PLP.ligand.torsion>  (54) 
0.2556

>  <Gold.PLP.part.buried>  (54) 
-9.6318

>  <Gold.PLP.part.hbond>  (54) 
-3.0045

>  <Gold.PLP.part.metal>  (54) 
0.0000

>  <Gold.PLP.part.nonpolar>  (54) 
-24.7411

>  <Gold.PLP.part.repulsive>  (54) 
0.8701

>  <Gold.Protein.RotatedAtoms>  (54) 


>  <Gold.Protein.RotatedTorsions>  (54) 


>  <Gold.Protein.RotatedWaterAtoms>  (54) 


>  <Gold.Version>  (54) 
5.3.0

>  <PLP.Chemscore.CHOScore>  (54) 


>  <PLP.Chemscore.Hbond>  (54) 


>  <PLP.Chemscore.Internal.Correction>  (54) 


>  <PLP.Chemscore.Metal>  (54) 


>  <PLP.Fitness>  (54) 


>  <PLP.PLP>  (54) 


>  <PLP.ligand.clash>  (54) 


>  <PLP.ligand.torsion>  (54) 


>  <PLP.part.buried>  (54) 


>  <PLP.part.hbond>  (54) 


>  <PLP.part.metal>  (54) 


>  <PLP.part.nonpolar>  (54) 


>  <PLP.part.repulsive>  (54) 


>  <Version>  (54) 


$$$$
3054|Compound_1882|Compounds_3D_F|sdf|548|dock4|1
     RDKit          3D

 17 18  0  0  0  0  0  0  0  0999 V2000
  -14.7190  -21.9249   13.2333 O   0  0  0  0  0  0  0  0  0  0  0  0
  -13.4733  -21.7990   12.7357 C   0  0  0  0  0  0  0  0  0  0  0  0
  -12.8422  -22.7885   12.4201 O   0  0  0  0  0  0  0  0  0  0  0  0
  -12.8749  -20.4592   12.5748 C   0  0  0  0  0  0  0  0  0  0  0  0
  -11.6293  -20.2027   12.2285 N   0  0  0  0  0  0  0  0  0  0  0  0
  -11.4368  -18.8881   12.1813 C   0  0  0  0  0  0  0  0  0  0  0  0
  -12.5587  -18.2767   12.4972 N   0  0  0  0  0  0  0  0  0  0  0  0
  -13.5104  -19.2772   12.7524 N   0  0  0  0  0  0  0  0  0  0  0  0
  -10.2348  -18.2569   11.8487 N   0  0  0  0  0  0  0  0  0  0  0  0
  -10.0314  -16.9696   12.1966 C   0  0  0  0  0  0  0  0  0  0  0  0
  -10.8926  -16.3593   12.7982 O   0  0  0  0  0  0  0  0  0  0  0  0
   -8.7581  -16.3010   11.8442 C   0  0  0  0  0  0  0  0  0  0  0  0
   -8.6985  -14.9766   11.7645 N   0  0  0  0  0  0  0  0  0  0  0  0
   -7.6128  -14.3613   11.4617 N   0  0  0  0  0  0  0  0  0  0  0  0
   -6.4847  -15.0019   11.2081 C   0  0  0  0  0  0  0  0  0  0  0  0
   -6.4437  -16.3855   11.2661 C   0  0  0  0  0  0  0  0  0  0  0  0
   -7.6105  -17.0603   11.5975 C   0  0  0  0  0  0  0  0  0  0  0  0
  1  2  1  0
  2  3  2  0
  2  4  1  0
  4  5  2  0
  4  8  1  0
  5  6  1  0
  6  7  2  0
  6  9  1  0
  7  8  1  0
  9 10  1  0
 10 11  2  0
 10 12  1  0
 12 13  2  0
 12 17  1  0
 13 14  1  0
 14 15  2  0
 15 16  1  0
 16 17  2  0
M  END
>  <Gold.Gold.Protein.RotatedWaterAtoms>  (55) 


>  <Gold.Id.Protein>  (55) 


>  <Gold.PLP.Chemscore.CHOScore>  (55) 
0.4714

>  <Gold.PLP.Chemscore.Hbond>  (55) 
5.1888

>  <Gold.PLP.Chemscore.Internal.Correction>  (55) 
0.0011

>  <Gold.PLP.Chemscore.Metal>  (55) 
0.0000

>  <Gold.PLP.Fitness>  (55) 
42.1211

>  <Gold.PLP.PLP>  (55) 
-25.7929

>  <Gold.PLP.ligand.clash>  (55) 
0.0000

>  <Gold.PLP.ligand.torsion>  (55) 
0.3267

>  <Gold.PLP.part.buried>  (55) 
-3.4947

>  <Gold.PLP.part.hbond>  (55) 
-6.8974

>  <Gold.PLP.part.metal>  (55) 
0.0000

>  <Gold.PLP.part.nonpolar>  (55) 
-16.5670

>  <Gold.PLP.part.repulsive>  (55) 
0.5844

>  <Gold.Protein.RotatedAtoms>  (55) 


>  <Gold.Protein.RotatedTorsions>  (55) 


>  <Gold.Protein.RotatedWaterAtoms>  (55) 


>  <Gold.Version>  (55) 
5.3.0

>  <PLP.Chemscore.CHOScore>  (55) 


>  <PLP.Chemscore.Hbond>  (55) 


>  <PLP.Chemscore.Internal.Correction>  (55) 


>  <PLP.Chemscore.Metal>  (55) 


>  <PLP.Fitness>  (55) 


>  <PLP.PLP>  (55) 


>  <PLP.ligand.clash>  (55) 


>  <PLP.ligand.torsion>  (55) 


>  <PLP.part.buried>  (55) 


>  <PLP.part.hbond>  (55) 


>  <PLP.part.metal>  (55) 


>  <PLP.part.nonpolar>  (55) 


>  <PLP.part.repulsive>  (55) 


>  <Version>  (55) 


$$$$
3055|Compound_1882|Compounds_3D_F|sdf|548|dock5|1
     RDKit          3D

 17 18  0  0  0  0  0  0  0  0999 V2000
  -14.7389  -21.9607   13.0301 O   0  0  0  0  0  0  0  0  0  0  0  0
  -13.4414  -21.8383   12.6883 C   0  0  0  0  0  0  0  0  0  0  0  0
  -12.7588  -22.8311   12.5294 O   0  0  0  0  0  0  0  0  0  0  0  0
  -12.8491  -20.4984   12.5079 C   0  0  0  0  0  0  0  0  0  0  0  0
  -11.6104  -20.2415   12.1377 N   0  0  0  0  0  0  0  0  0  0  0  0
  -11.4218  -18.9269   12.0784 C   0  0  0  0  0  0  0  0  0  0  0  0
  -12.5392  -18.3158   12.4103 N   0  0  0  0  0  0  0  0  0  0  0  0
  -13.4840  -19.3166   12.6891 N   0  0  0  0  0  0  0  0  0  0  0  0
  -10.2274  -18.2953   11.7202 N   0  0  0  0  0  0  0  0  0  0  0  0
   -9.9975  -17.0225   12.1030 C   0  0  0  0  0  0  0  0  0  0  0  0
  -10.8283  -16.4254   12.7583 O   0  0  0  0  0  0  0  0  0  0  0  0
   -8.7322  -16.3534   11.7234 C   0  0  0  0  0  0  0  0  0  0  0  0
   -7.7310  -17.0591   11.2099 N   0  0  0  0  0  0  0  0  0  0  0  0
   -6.6193  -16.5144   10.8691 N   0  0  0  0  0  0  0  0  0  0  0  0
   -6.3955  -15.2188   11.0068 C   0  0  0  0  0  0  0  0  0  0  0  0
   -7.3787  -14.3965   11.5326 C   0  0  0  0  0  0  0  0  0  0  0  0
   -8.5863  -14.9743   11.8997 C   0  0  0  0  0  0  0  0  0  0  0  0
  1  2  1  0
  2  3  2  0
  2  4  1  0
  4  5  2  0
  4  8  1  0
  5  6  1  0
  6  7  2  0
  6  9  1  0
  7  8  1  0
  9 10  1  0
 10 11  2  0
 10 12  1  0
 12 13  2  0
 12 17  1  0
 13 14  1  0
 14 15  2  0
 15 16  1  0
 16 17  2  0
M  END
>  <Gold.Gold.Protein.RotatedWaterAtoms>  (56) 


>  <Gold.Id.Protein>  (56) 


>  <Gold.PLP.Chemscore.CHOScore>  (56) 
0.8296

>  <Gold.PLP.Chemscore.Hbond>  (56) 
5.1103

>  <Gold.PLP.Chemscore.Internal.Correction>  (56) 
0.0011

>  <Gold.PLP.Chemscore.Metal>  (56) 
0.0000

>  <Gold.PLP.Fitness>  (56) 
43.6591

>  <Gold.PLP.PLP>  (56) 
-26.1725

>  <Gold.PLP.ligand.clash>  (56) 
0.0000

>  <Gold.PLP.ligand.torsion>  (56) 
0.1670

>  <Gold.PLP.part.buried>  (56) 
-4.3921

>  <Gold.PLP.part.hbond>  (56) 
-6.5157

>  <Gold.PLP.part.metal>  (56) 
0.0000

>  <Gold.PLP.part.nonpolar>  (56) 
-17.4045

>  <Gold.PLP.part.repulsive>  (56) 
0.3972

>  <Gold.Protein.RotatedAtoms>  (56) 


>  <Gold.Protein.RotatedTorsions>  (56) 


>  <Gold.Protein.RotatedWaterAtoms>  (56) 


>  <Gold.Version>  (56) 
5.3.0

>  <PLP.Chemscore.CHOScore>  (56) 


>  <PLP.Chemscore.Hbond>  (56) 


>  <PLP.Chemscore.Internal.Correction>  (56) 


>  <PLP.Chemscore.Metal>  (56) 


>  <PLP.Fitness>  (56) 


>  <PLP.PLP>  (56) 


>  <PLP.ligand.clash>  (56) 


>  <PLP.ligand.torsion>  (56) 


>  <PLP.part.buried>  (56) 


>  <PLP.part.hbond>  (56) 


>  <PLP.part.metal>  (56) 


>  <PLP.part.nonpolar>  (56) 


>  <PLP.part.repulsive>  (56) 


>  <Version>  (56) 


$$$$
3056|Compound_1882|Compounds_3D_F|sdf|548|dock6|1
     RDKit          3D

 17 18  0  0  0  0  0  0  0  0999 V2000
  -14.8182  -22.0441   12.7877 O   0  0  0  0  0  0  0  0  0  0  0  0
  -13.6108  -21.9035   12.2067 C   0  0  0  0  0  0  0  0  0  0  0  0
  -13.0832  -22.8543   11.6641 O   0  0  0  0  0  0  0  0  0  0  0  0
  -12.9286  -20.5947   12.2301 C   0  0  0  0  0  0  0  0  0  0  0  0
  -11.7314  -20.3353   11.7434 N   0  0  0  0  0  0  0  0  0  0  0  0
  -11.4341  -19.0543   11.9382 C   0  0  0  0  0  0  0  0  0  0  0  0
  -12.4381  -18.4679   12.5550 N   0  0  0  0  0  0  0  0  0  0  0  0
  -13.4245  -19.4479   12.7513 N   0  0  0  0  0  0  0  0  0  0  0  0
  -10.2451  -18.4305   11.5496 N   0  0  0  0  0  0  0  0  0  0  0  0
   -9.9961  -17.1601   11.9283 C   0  0  0  0  0  0  0  0  0  0  0  0
  -10.8049  -16.5584   12.6064 O   0  0  0  0  0  0  0  0  0  0  0  0
   -8.7366  -16.4993   11.5164 C   0  0  0  0  0  0  0  0  0  0  0  0
   -7.8043  -17.1850   10.8648 N   0  0  0  0  0  0  0  0  0  0  0  0
   -6.6999  -16.6466   10.4917 N   0  0  0  0  0  0  0  0  0  0  0  0
   -6.4158  -15.3780   10.7308 C   0  0  0  0  0  0  0  0  0  0  0  0
   -7.3246  -14.5780   11.4041 C   0  0  0  0  0  0  0  0  0  0  0  0
   -8.5240  -15.1486   11.8076 C   0  0  0  0  0  0  0  0  0  0  0  0
  1  2  1  0
  2  3  2  0
  2  4  1  0
  4  5  2  0
  4  8  1  0
  5  6  1  0
  6  7  2  0
  6  9  1  0
  7  8  1  0
  9 10  1  0
 10 11  2  0
 10 12  1  0
 12 13  2  0
 12 17  1  0
 13 14  1  0
 14 15  2  0
 15 16  1  0
 16 17  2  0
M  END
>  <Gold.Gold.Protein.RotatedWaterAtoms>  (57) 


>  <Gold.Id.Protein>  (57) 


>  <Gold.PLP.Chemscore.CHOScore>  (57) 
0.8619

>  <Gold.PLP.Chemscore.Hbond>  (57) 
5.0237

>  <Gold.PLP.Chemscore.Internal.Correction>  (57) 
0.0011

>  <Gold.PLP.Chemscore.Metal>  (57) 
0.0000

>  <Gold.PLP.Fitness>  (57) 
42.8916

>  <Gold.PLP.PLP>  (57) 
-25.2904

>  <Gold.PLP.ligand.clash>  (57) 
0.0000

>  <Gold.PLP.ligand.torsion>  (57) 
0.0283

>  <Gold.PLP.part.buried>  (57) 
-3.9627

>  <Gold.PLP.part.hbond>  (57) 
-6.0479

>  <Gold.PLP.part.metal>  (57) 
0.0000

>  <Gold.PLP.part.nonpolar>  (57) 
-16.2538

>  <Gold.PLP.part.repulsive>  (57) 
0.3402

>  <Gold.Protein.RotatedAtoms>  (57) 


>  <Gold.Protein.RotatedTorsions>  (57) 


>  <Gold.Protein.RotatedWaterAtoms>  (57) 


>  <Gold.Version>  (57) 
5.3.0

>  <PLP.Chemscore.CHOScore>  (57) 


>  <PLP.Chemscore.Hbond>  (57) 


>  <PLP.Chemscore.Internal.Correction>  (57) 


>  <PLP.Chemscore.Metal>  (57) 


>  <PLP.Fitness>  (57) 


>  <PLP.PLP>  (57) 


>  <PLP.ligand.clash>  (57) 


>  <PLP.ligand.torsion>  (57) 


>  <PLP.part.buried>  (57) 


>  <PLP.part.hbond>  (57) 


>  <PLP.part.metal>  (57) 


>  <PLP.part.nonpolar>  (57) 


>  <PLP.part.repulsive>  (57) 


>  <Version>  (57) 


$$$$
3057|Compound_1882|Compounds_3D_F|sdf|548|dock7|1
     RDKit          3D

 17 18  0  0  0  0  0  0  0  0999 V2000
  -14.7654  -19.9696   10.7037 O   0  0  0  0  0  0  0  0  0  0  0  0
  -13.5930  -19.6302   10.1331 C   0  0  0  0  0  0  0  0  0  0  0  0
  -13.3615  -19.9503    8.9838 O   0  0  0  0  0  0  0  0  0  0  0  0
  -12.5896  -18.8705   10.9044 C   0  0  0  0  0  0  0  0  0  0  0  0
  -11.3144  -18.7372   10.5984 N   0  0  0  0  0  0  0  0  0  0  0  0
  -10.7078  -17.9879   11.5138 C   0  0  0  0  0  0  0  0  0  0  0  0
  -11.5856  -17.6264   12.4254 N   0  0  0  0  0  0  0  0  0  0  0  0
  -12.8181  -18.1837   12.0484 N   0  0  0  0  0  0  0  0  0  0  0  0
   -9.3541  -17.6398   11.5081 N   0  0  0  0  0  0  0  0  0  0  0  0
   -8.9716  -16.4162   11.9274 C   0  0  0  0  0  0  0  0  0  0  0  0
   -9.8032  -15.6171   12.3094 O   0  0  0  0  0  0  0  0  0  0  0  0
   -7.5374  -16.0474   11.9212 C   0  0  0  0  0  0  0  0  0  0  0  0
   -6.6163  -16.9515   11.6078 N   0  0  0  0  0  0  0  0  0  0  0  0
   -5.3638  -16.6693   11.5917 N   0  0  0  0  0  0  0  0  0  0  0  0
   -4.9069  -15.4643   11.8861 C   0  0  0  0  0  0  0  0  0  0  0  0
   -5.7889  -14.4512   12.2255 C   0  0  0  0  0  0  0  0  0  0  0  0
   -7.1457  -14.7442   12.2411 C   0  0  0  0  0  0  0  0  0  0  0  0
  1  2  1  0
  2  3  2  0
  2  4  1  0
  4  5  2  0
  4  8  1  0
  5  6  1  0
  6  7  2  0
  6  9  1  0
  7  8  1  0
  9 10  1  0
 10 11  2  0
 10 12  1  0
 12 13  2  0
 12 17  1  0
 13 14  1  0
 14 15  2  0
 15 16  1  0
 16 17  2  0
M  END
>  <Gold.Gold.Protein.RotatedWaterAtoms>  (58) 


>  <Gold.Id.Protein>  (58) 


>  <Gold.PLP.Chemscore.CHOScore>  (58) 
1.5894

>  <Gold.PLP.Chemscore.Hbond>  (58) 
2.2345

>  <Gold.PLP.Chemscore.Internal.Correction>  (58) 
0.0010

>  <Gold.PLP.Chemscore.Metal>  (58) 
0.0000

>  <Gold.PLP.Fitness>  (58) 
40.8681

>  <Gold.PLP.PLP>  (58) 
-30.2034

>  <Gold.PLP.ligand.clash>  (58) 
0.0000

>  <Gold.PLP.ligand.torsion>  (58) 
0.4040

>  <Gold.PLP.part.buried>  (58) 
-5.7922

>  <Gold.PLP.part.hbond>  (58) 
-3.4886

>  <Gold.PLP.part.metal>  (58) 
0.0000

>  <Gold.PLP.part.nonpolar>  (58) 
-20.7077

>  <Gold.PLP.part.repulsive>  (58) 
0.5701

>  <Gold.Protein.RotatedAtoms>  (58) 


>  <Gold.Protein.RotatedTorsions>  (58) 


>  <Gold.Protein.RotatedWaterAtoms>  (58) 


>  <Gold.Version>  (58) 
5.3.0

>  <PLP.Chemscore.CHOScore>  (58) 


>  <PLP.Chemscore.Hbond>  (58) 


>  <PLP.Chemscore.Internal.Correction>  (58) 


>  <PLP.Chemscore.Metal>  (58) 


>  <PLP.Fitness>  (58) 


>  <PLP.PLP>  (58) 


>  <PLP.ligand.clash>  (58) 


>  <PLP.ligand.torsion>  (58) 


>  <PLP.part.buried>  (58) 


>  <PLP.part.hbond>  (58) 


>  <PLP.part.metal>  (58) 


>  <PLP.part.nonpolar>  (58) 


>  <PLP.part.repulsive>  (58) 


>  <Version>  (58) 


$$$$
3058|Compound_1882|Compounds_3D_F|sdf|548|dock8|1
     RDKit          3D

 17 18  0  0  0  0  0  0  0  0999 V2000
  -14.7955  -21.9524   13.1163 O   0  0  0  0  0  0  0  0  0  0  0  0
  -13.5436  -21.8306   12.6333 C   0  0  0  0  0  0  0  0  0  0  0  0
  -12.9216  -22.8204   12.3013 O   0  0  0  0  0  0  0  0  0  0  0  0
  -12.9276  -20.4950   12.5083 C   0  0  0  0  0  0  0  0  0  0  0  0
  -11.6844  -20.2450   12.1487 N   0  0  0  0  0  0  0  0  0  0  0  0
  -11.4726  -18.9325   12.1437 C   0  0  0  0  0  0  0  0  0  0  0  0
  -12.5792  -18.3161   12.5011 N   0  0  0  0  0  0  0  0  0  0  0  0
  -13.5416  -19.3107   12.7385 N   0  0  0  0  0  0  0  0  0  0  0  0
  -10.2671  -18.3079   11.8117 N   0  0  0  0  0  0  0  0  0  0  0  0
  -10.0528  -17.0248   12.1685 C   0  0  0  0  0  0  0  0  0  0  0  0
  -10.9072  -16.4126   12.7777 O   0  0  0  0  0  0  0  0  0  0  0  0
   -8.7757  -16.3631   11.8165 C   0  0  0  0  0  0  0  0  0  0  0  0
   -7.7427  -17.0846   11.3964 N   0  0  0  0  0  0  0  0  0  0  0  0
   -6.6199  -16.5467   11.0824 N   0  0  0  0  0  0  0  0  0  0  0  0
   -6.4155  -15.2428   11.1567 C   0  0  0  0  0  0  0  0  0  0  0  0
   -7.4322  -14.4039   11.5833 C   0  0  0  0  0  0  0  0  0  0  0  0
   -8.6519  -14.9745   11.9205 C   0  0  0  0  0  0  0  0  0  0  0  0
  1  2  1  0
  2  3  2  0
  2  4  1  0
  4  5  2  0
  4  8  1  0
  5  6  1  0
  6  7  2  0
  6  9  1  0
  7  8  1  0
  9 10  1  0
 10 11  2  0
 10 12  1  0
 12 13  2  0
 12 17  1  0
 13 14  1  0
 14 15  2  0
 15 16  1  0
 16 17  2  0
M  END
>  <Gold.Gold.Protein.RotatedWaterAtoms>  (59) 


>  <Gold.Id.Protein>  (59) 


>  <Gold.PLP.Chemscore.CHOScore>  (59) 
0.6118

>  <Gold.PLP.Chemscore.Hbond>  (59) 
5.2622

>  <Gold.PLP.Chemscore.Internal.Correction>  (59) 
0.0010

>  <Gold.PLP.Chemscore.Metal>  (59) 
0.0000

>  <Gold.PLP.Fitness>  (59) 
44.1099

>  <Gold.PLP.PLP>  (59) 
-26.8168

>  <Gold.PLP.ligand.clash>  (59) 
0.0000

>  <Gold.PLP.ligand.torsion>  (59) 
0.1649

>  <Gold.PLP.part.buried>  (59) 
-3.8547

>  <Gold.PLP.part.hbond>  (59) 
-6.5703

>  <Gold.PLP.part.metal>  (59) 
0.0000

>  <Gold.PLP.part.nonpolar>  (59) 
-17.7386

>  <Gold.PLP.part.repulsive>  (59) 
0.4326

>  <Gold.Protein.RotatedAtoms>  (59) 


>  <Gold.Protein.RotatedTorsions>  (59) 


>  <Gold.Protein.RotatedWaterAtoms>  (59) 


>  <Gold.Version>  (59) 
5.3.0

>  <PLP.Chemscore.CHOScore>  (59) 


>  <PLP.Chemscore.Hbond>  (59) 


>  <PLP.Chemscore.Internal.Correction>  (59) 


>  <PLP.Chemscore.Metal>  (59) 


>  <PLP.Fitness>  (59) 


>  <PLP.PLP>  (59) 


>  <PLP.ligand.clash>  (59) 


>  <PLP.ligand.torsion>  (59) 


>  <PLP.part.buried>  (59) 


>  <PLP.part.hbond>  (59) 


>  <PLP.part.metal>  (59) 


>  <PLP.part.nonpolar>  (59) 


>  <PLP.part.repulsive>  (59) 


>  <Version>  (59) 


$$$$
3059|Compound_1882|Compounds_3D_F|sdf|548|dock9|1
     RDKit          3D

 17 18  0  0  0  0  0  0  0  0999 V2000
  -14.1637  -19.4086   11.8946 O   0  0  0  0  0  0  0  0  0  0  0  0
  -12.9104  -19.4223   12.3889 C   0  0  0  0  0  0  0  0  0  0  0  0
  -12.6755  -19.9975   13.4333 O   0  0  0  0  0  0  0  0  0  0  0  0
  -11.8231  -18.7380   11.6621 C   0  0  0  0  0  0  0  0  0  0  0  0
  -10.8041  -18.1047   12.2079 N   0  0  0  0  0  0  0  0  0  0  0  0
  -10.0204  -17.6081   11.2557 C   0  0  0  0  0  0  0  0  0  0  0  0
  -10.5244  -17.9150   10.0792 N   0  0  0  0  0  0  0  0  0  0  0  0
  -11.6943  -18.6543   10.3171 N   0  0  0  0  0  0  0  0  0  0  0  0
   -8.8485  -16.8771   11.4705 N   0  0  0  0  0  0  0  0  0  0  0  0
   -8.9181  -15.6197   11.9538 C   0  0  0  0  0  0  0  0  0  0  0  0
   -9.9987  -15.1229   12.2019 O   0  0  0  0  0  0  0  0  0  0  0  0
   -7.6766  -14.8454   12.1812 C   0  0  0  0  0  0  0  0  0  0  0  0
   -6.5098  -15.4704   12.2910 N   0  0  0  0  0  0  0  0  0  0  0  0
   -5.4126  -14.8332   12.4885 N   0  0  0  0  0  0  0  0  0  0  0  0
   -5.3696  -13.5165   12.5969 C   0  0  0  0  0  0  0  0  0  0  0  0
   -6.5343  -12.7731   12.4957 C   0  0  0  0  0  0  0  0  0  0  0  0
   -7.7255  -13.4516   12.2772 C   0  0  0  0  0  0  0  0  0  0  0  0
  1  2  1  0
  2  3  2  0
  2  4  1  0
  4  5  2  0
  4  8  1  0
  5  6  1  0
  6  7  2  0
  6  9  1  0
  7  8  1  0
  9 10  1  0
 10 11  2  0
 10 12  1  0
 12 13  2  0
 12 17  1  0
 13 14  1  0
 14 15  2  0
 15 16  1  0
 16 17  2  0
M  END
>  <Gold.Gold.Protein.RotatedWaterAtoms>  (60) 


>  <Gold.Id.Protein>  (60) 


>  <Gold.PLP.Chemscore.CHOScore>  (60) 
1.0000

>  <Gold.PLP.Chemscore.Hbond>  (60) 
2.4587

>  <Gold.PLP.Chemscore.Internal.Correction>  (60) 
0.0010

>  <Gold.PLP.Chemscore.Metal>  (60) 
0.0000

>  <Gold.PLP.Fitness>  (60) 
42.1686

>  <Gold.PLP.PLP>  (60) 
-34.4748

>  <Gold.PLP.ligand.clash>  (60) 
0.0000

>  <Gold.PLP.ligand.torsion>  (60) 
1.3417

>  <Gold.PLP.part.buried>  (60) 
-6.6551

>  <Gold.PLP.part.hbond>  (60) 
-3.7827

>  <Gold.PLP.part.metal>  (60) 
0.0000

>  <Gold.PLP.part.nonpolar>  (60) 
-24.0661

>  <Gold.PLP.part.repulsive>  (60) 
0.6059

>  <Gold.Protein.RotatedAtoms>  (60) 


>  <Gold.Protein.RotatedTorsions>  (60) 


>  <Gold.Protein.RotatedWaterAtoms>  (60) 


>  <Gold.Version>  (60) 
5.3.0

>  <PLP.Chemscore.CHOScore>  (60) 


>  <PLP.Chemscore.Hbond>  (60) 


>  <PLP.Chemscore.Internal.Correction>  (60) 


>  <PLP.Chemscore.Metal>  (60) 


>  <PLP.Fitness>  (60) 


>  <PLP.PLP>  (60) 


>  <PLP.ligand.clash>  (60) 


>  <PLP.ligand.torsion>  (60) 


>  <PLP.part.buried>  (60) 


>  <PLP.part.hbond>  (60) 


>  <PLP.part.metal>  (60) 


>  <PLP.part.nonpolar>  (60) 


>  <PLP.part.repulsive>  (60) 


>  <Version>  (60) 


$$$$
3060|Compound_1883|Compounds_3D_F|sdf|549|dock1|1
     RDKit          3D

 19 21  0  0  0  0  0  0  0  0999 V2000
  -11.7811  -18.5846   12.4426 O   0  0  0  0  0  0  0  0  0  0  0  0
  -10.6236  -18.1893   11.8630 C   0  0  0  0  0  0  0  0  0  0  0  0
   -9.8620  -19.0896   11.0924 C   0  0  0  0  0  0  0  0  0  0  0  0
  -10.0056  -20.3816   10.7494 N   0  0  0  0  0  0  0  0  0  0  0  0
   -9.0176  -20.7573   10.0154 N   0  0  0  0  0  0  0  0  0  0  0  0
   -8.1371  -19.6806    9.8336 N   0  0  0  0  0  0  0  0  0  0  0  0
   -8.6686  -18.6209   10.5142 C   0  0  0  0  0  0  0  0  0  0  0  0
   -8.3036  -17.3585   10.7116 N   0  0  0  0  0  0  0  0  0  0  0  0
   -9.0513  -16.5486   11.4418 C   0  0  0  0  0  0  0  0  0  0  0  0
  -10.1859  -16.9462   12.0029 N   0  0  0  0  0  0  0  0  0  0  0  0
   -8.6370  -15.2364   11.6255 N   0  0  0  0  0  0  0  0  0  0  0  0
   -7.3254  -14.9553   11.7529 C   0  0  0  0  0  0  0  0  0  0  0  0
   -6.5050  -15.8505   11.7065 O   0  0  0  0  0  0  0  0  0  0  0  0
   -6.8843  -13.5553   11.9496 C   0  0  0  0  0  0  0  0  0  0  0  0
   -7.7335  -12.5537   11.7550 N   0  0  0  0  0  0  0  0  0  0  0  0
   -7.3890  -11.3270   11.9156 N   0  0  0  0  0  0  0  0  0  0  0  0
   -6.1686  -10.9797   12.2835 C   0  0  0  0  0  0  0  0  0  0  0  0
   -5.2072  -11.9524   12.5118 C   0  0  0  0  0  0  0  0  0  0  0  0
   -5.5726  -13.2816   12.3458 C   0  0  0  0  0  0  0  0  0  0  0  0
  1  2  1  0
  2  3  2  0
  2 10  1  0
  3  4  1  0
  3  7  1  0
  4  5  2  0
  5  6  1  0
  6  7  1  0
  7  8  2  0
  8  9  1  0
  9 10  2  0
  9 11  1  0
 11 12  1  0
 12 13  2  0
 12 14  1  0
 14 15  2  0
 14 19  1  0
 15 16  1  0
 16 17  2  0
 17 18  1  0
 18 19  2  0
M  END
>  <Gold.Gold.Protein.RotatedWaterAtoms>  (61) 


>  <Gold.Id.Protein>  (61) 


>  <Gold.PLP.Chemscore.CHOScore>  (61) 
0.2674

>  <Gold.PLP.Chemscore.Hbond>  (61) 
1.8500

>  <Gold.PLP.Chemscore.Internal.Correction>  (61) 
0.4230

>  <Gold.PLP.Chemscore.Metal>  (61) 
0.0000

>  <Gold.PLP.Fitness>  (61) 
44.4088

>  <Gold.PLP.PLP>  (61) 
-38.3001

>  <Gold.PLP.ligand.clash>  (61) 
0.0000

>  <Gold.PLP.ligand.torsion>  (61) 
0.3333

>  <Gold.PLP.part.buried>  (61) 
-9.0657

>  <Gold.PLP.part.hbond>  (61) 
-2.2764

>  <Gold.PLP.part.metal>  (61) 
0.0000

>  <Gold.PLP.part.nonpolar>  (61) 
-27.4814

>  <Gold.PLP.part.repulsive>  (61) 
0.4513

>  <Gold.Protein.RotatedAtoms>  (61) 


>  <Gold.Protein.RotatedTorsions>  (61) 


>  <Gold.Protein.RotatedWaterAtoms>  (61) 


>  <Gold.Version>  (61) 
5.3.0

>  <PLP.Chemscore.CHOScore>  (61) 


>  <PLP.Chemscore.Hbond>  (61) 


>  <PLP.Chemscore.Internal.Correction>  (61) 


>  <PLP.Chemscore.Metal>  (61) 


>  <PLP.Fitness>  (61) 


>  <PLP.PLP>  (61) 


>  <PLP.ligand.clash>  (61) 


>  <PLP.ligand.torsion>  (61) 


>  <PLP.part.buried>  (61) 


>  <PLP.part.hbond>  (61) 


>  <PLP.part.metal>  (61) 


>  <PLP.part.nonpolar>  (61) 


>  <PLP.part.repulsive>  (61) 


>  <Version>  (61) 


$$$$
3061|Compound_1883|Compounds_3D_F|sdf|549|dock2|1
     RDKit          3D

 19 21  0  0  0  0  0  0  0  0999 V2000
  -13.9679  -20.4811   14.2241 O   0  0  0  0  0  0  0  0  0  0  0  0
  -13.1105  -20.7685   13.2170 C   0  0  0  0  0  0  0  0  0  0  0  0
  -13.2856  -21.9255   12.4328 C   0  0  0  0  0  0  0  0  0  0  0  0
  -14.1828  -22.9267   12.4295 N   0  0  0  0  0  0  0  0  0  0  0  0
  -13.9053  -23.7670   11.4951 N   0  0  0  0  0  0  0  0  0  0  0  0
  -12.7593  -23.3382   10.8091 N   0  0  0  0  0  0  0  0  0  0  0  0
  -12.3631  -22.1709   11.3998 C   0  0  0  0  0  0  0  0  0  0  0  0
  -11.3686  -21.3124   11.2000 N   0  0  0  0  0  0  0  0  0  0  0  0
  -11.2445  -20.2381   11.9607 C   0  0  0  0  0  0  0  0  0  0  0  0
  -12.0928  -19.9647   12.9435 N   0  0  0  0  0  0  0  0  0  0  0  0
  -10.1926  -19.3643   11.7215 N   0  0  0  0  0  0  0  0  0  0  0  0
  -10.3701  -18.0376   11.8759 C   0  0  0  0  0  0  0  0  0  0  0  0
  -11.4510  -17.6059   12.2249 O   0  0  0  0  0  0  0  0  0  0  0  0
   -9.2476  -17.1061   11.6198 C   0  0  0  0  0  0  0  0  0  0  0  0
   -9.4362  -15.7945   11.7009 N   0  0  0  0  0  0  0  0  0  0  0  0
   -8.4883  -14.9551   11.4863 N   0  0  0  0  0  0  0  0  0  0  0  0
   -7.2645  -15.3391   11.1700 C   0  0  0  0  0  0  0  0  0  0  0  0
   -6.9650  -16.6885   11.0601 C   0  0  0  0  0  0  0  0  0  0  0  0
   -7.9826  -17.6032   11.2959 C   0  0  0  0  0  0  0  0  0  0  0  0
  1  2  1  0
  2  3  2  0
  2 10  1  0
  3  4  1  0
  3  7  1  0
  4  5  2  0
  5  6  1  0
  6  7  1  0
  7  8  2  0
  8  9  1  0
  9 10  2  0
  9 11  1  0
 11 12  1  0
 12 13  2  0
 12 14  1  0
 14 15  2  0
 14 19  1  0
 15 16  1  0
 16 17  2  0
 17 18  1  0
 18 19  2  0
M  END
>  <Gold.Gold.Protein.RotatedWaterAtoms>  (62) 


>  <Gold.Id.Protein>  (62) 


>  <Gold.PLP.Chemscore.CHOScore>  (62) 
0.0000

>  <Gold.PLP.Chemscore.Hbond>  (62) 
4.8600

>  <Gold.PLP.Chemscore.Internal.Correction>  (62) 
0.4216

>  <Gold.PLP.Chemscore.Metal>  (62) 
0.0000

>  <Gold.PLP.Fitness>  (62) 
43.0352

>  <Gold.PLP.PLP>  (62) 
-28.5673

>  <Gold.PLP.ligand.clash>  (62) 
0.0000

>  <Gold.PLP.ligand.torsion>  (62) 
0.2669

>  <Gold.PLP.part.buried>  (62) 
-6.3420

>  <Gold.PLP.part.hbond>  (62) 
-7.6491

>  <Gold.PLP.part.metal>  (62) 
0.0000

>  <Gold.PLP.part.nonpolar>  (62) 
-15.4539

>  <Gold.PLP.part.repulsive>  (62) 
0.4354

>  <Gold.Protein.RotatedAtoms>  (62) 


>  <Gold.Protein.RotatedTorsions>  (62) 


>  <Gold.Protein.RotatedWaterAtoms>  (62) 


>  <Gold.Version>  (62) 
5.3.0

>  <PLP.Chemscore.CHOScore>  (62) 


>  <PLP.Chemscore.Hbond>  (62) 


>  <PLP.Chemscore.Internal.Correction>  (62) 


>  <PLP.Chemscore.Metal>  (62) 


>  <PLP.Fitness>  (62) 


>  <PLP.PLP>  (62) 


>  <PLP.ligand.clash>  (62) 


>  <PLP.ligand.torsion>  (62) 


>  <PLP.part.buried>  (62) 


>  <PLP.part.hbond>  (62) 


>  <PLP.part.metal>  (62) 


>  <PLP.part.nonpolar>  (62) 


>  <PLP.part.repulsive>  (62) 


>  <Version>  (62) 


$$$$
3062|Compound_1883|Compounds_3D_F|sdf|549|dock3|1
     RDKit          3D

 19 21  0  0  0  0  0  0  0  0999 V2000
  -11.7479  -17.8803   12.2814 O   0  0  0  0  0  0  0  0  0  0  0  0
  -10.5177  -17.8215   11.7200 C   0  0  0  0  0  0  0  0  0  0  0  0
  -10.0373  -18.8841   10.9298 C   0  0  0  0  0  0  0  0  0  0  0  0
  -10.5422  -20.0711   10.5510 N   0  0  0  0  0  0  0  0  0  0  0  0
   -9.6943  -20.6978    9.8131 N   0  0  0  0  0  0  0  0  0  0  0  0
   -8.5386  -19.9166    9.6661 N   0  0  0  0  0  0  0  0  0  0  0  0
   -8.7516  -18.7656   10.3720 C   0  0  0  0  0  0  0  0  0  0  0  0
   -8.0411  -17.6671   10.6060 N   0  0  0  0  0  0  0  0  0  0  0  0
   -8.5338  -16.6940   11.3532 C   0  0  0  0  0  0  0  0  0  0  0  0
   -9.7425  -16.7611   11.8963 N   0  0  0  0  0  0  0  0  0  0  0  0
   -7.7617  -15.5618   11.5752 N   0  0  0  0  0  0  0  0  0  0  0  0
   -8.3510  -14.3551   11.6843 C   0  0  0  0  0  0  0  0  0  0  0  0
   -9.5584  -14.2577   11.5887 O   0  0  0  0  0  0  0  0  0  0  0  0
   -7.5266  -13.1476   11.9204 C   0  0  0  0  0  0  0  0  0  0  0  0
   -8.0554  -11.9387   11.7748 N   0  0  0  0  0  0  0  0  0  0  0  0
   -7.3733  -10.8683   11.9706 N   0  0  0  0  0  0  0  0  0  0  0  0
   -6.1020  -10.8978   12.3283 C   0  0  0  0  0  0  0  0  0  0  0  0
   -5.4571  -12.1123   12.5066 C   0  0  0  0  0  0  0  0  0  0  0  0
   -6.1885  -13.2747   12.3023 C   0  0  0  0  0  0  0  0  0  0  0  0
  1  2  1  0
  2  3  2  0
  2 10  1  0
  3  4  1  0
  3  7  1  0
  4  5  2  0
  5  6  1  0
  6  7  1  0
  7  8  2  0
  8  9  1  0
  9 10  2  0
  9 11  1  0
 11 12  1  0
 12 13  2  0
 12 14  1  0
 14 15  2  0
 14 19  1  0
 15 16  1  0
 16 17  2  0
 17 18  1  0
 18 19  2  0
M  END
>  <Gold.Gold.Protein.RotatedWaterAtoms>  (63) 


>  <Gold.Id.Protein>  (63) 


>  <Gold.PLP.Chemscore.CHOScore>  (63) 
0.6333

>  <Gold.PLP.Chemscore.Hbond>  (63) 
1.3784

>  <Gold.PLP.Chemscore.Internal.Correction>  (63) 
0.4216

>  <Gold.PLP.Chemscore.Metal>  (63) 
0.0000

>  <Gold.PLP.Fitness>  (63) 
46.1479

>  <Gold.PLP.PLP>  (63) 
-40.3226

>  <Gold.PLP.ligand.clash>  (63) 
0.0000

>  <Gold.PLP.ligand.torsion>  (63) 
0.3157

>  <Gold.PLP.part.buried>  (63) 
-9.3230

>  <Gold.PLP.part.hbond>  (63) 
-3.9455

>  <Gold.PLP.part.metal>  (63) 
0.0000

>  <Gold.PLP.part.nonpolar>  (63) 
-28.0104

>  <Gold.PLP.part.repulsive>  (63) 
0.5823

>  <Gold.Protein.RotatedAtoms>  (63) 


>  <Gold.Protein.RotatedTorsions>  (63) 


>  <Gold.Protein.RotatedWaterAtoms>  (63) 


>  <Gold.Version>  (63) 
5.3.0

>  <PLP.Chemscore.CHOScore>  (63) 


>  <PLP.Chemscore.Hbond>  (63) 


>  <PLP.Chemscore.Internal.Correction>  (63) 


>  <PLP.Chemscore.Metal>  (63) 


>  <PLP.Fitness>  (63) 


>  <PLP.PLP>  (63) 


>  <PLP.ligand.clash>  (63) 


>  <PLP.ligand.torsion>  (63) 


>  <PLP.part.buried>  (63) 


>  <PLP.part.hbond>  (63) 


>  <PLP.part.metal>  (63) 


>  <PLP.part.nonpolar>  (63) 


>  <PLP.part.repulsive>  (63) 


>  <Version>  (63) 


$$$$
3063|Compound_1883|Compounds_3D_F|sdf|549|dock4|1
     RDKit          3D

 19 21  0  0  0  0  0  0  0  0999 V2000
  -11.6299  -17.8982   12.2221 O   0  0  0  0  0  0  0  0  0  0  0  0
  -10.4054  -17.7690   11.6600 C   0  0  0  0  0  0  0  0  0  0  0  0
   -9.8782  -18.7896   10.8446 C   0  0  0  0  0  0  0  0  0  0  0  0
  -10.3282  -19.9899   10.4393 N   0  0  0  0  0  0  0  0  0  0  0  0
   -9.4541  -20.5592    9.6856 N   0  0  0  0  0  0  0  0  0  0  0  0
   -8.3366  -19.7216    9.5546 N   0  0  0  0  0  0  0  0  0  0  0  0
   -8.6011  -18.5983   10.2873 C   0  0  0  0  0  0  0  0  0  0  0  0
   -7.9419  -17.4735   10.5453 N   0  0  0  0  0  0  0  0  0  0  0  0
   -8.4774  -16.5420   11.3158 C   0  0  0  0  0  0  0  0  0  0  0  0
   -9.6800  -16.6780   11.8594 N   0  0  0  0  0  0  0  0  0  0  0  0
   -7.7583  -15.3803   11.5625 N   0  0  0  0  0  0  0  0  0  0  0  0
   -8.3994  -14.1995   11.6630 C   0  0  0  0  0  0  0  0  0  0  0  0
   -9.6071  -14.1513   11.5380 O   0  0  0  0  0  0  0  0  0  0  0  0
   -7.6316  -12.9606   11.9255 C   0  0  0  0  0  0  0  0  0  0  0  0
   -6.4101  -13.0282   12.4411 N   0  0  0  0  0  0  0  0  0  0  0  0
   -5.7131  -11.9770   12.6826 N   0  0  0  0  0  0  0  0  0  0  0  0
   -6.1638  -10.7600   12.4358 C   0  0  0  0  0  0  0  0  0  0  0  0
   -7.4289  -10.5823   11.8967 C   0  0  0  0  0  0  0  0  0  0  0  0
   -8.1873  -11.7137   11.6273 C   0  0  0  0  0  0  0  0  0  0  0  0
  1  2  1  0
  2  3  2  0
  2 10  1  0
  3  4  1  0
  3  7  1  0
  4  5  2  0
  5  6  1  0
  6  7  1  0
  7  8  2  0
  8  9  1  0
  9 10  2  0
  9 11  1  0
 11 12  1  0
 12 13  2  0
 12 14  1  0
 14 15  2  0
 14 19  1  0
 15 16  1  0
 16 17  2  0
 17 18  1  0
 18 19  2  0
M  END
>  <Gold.Gold.Protein.RotatedWaterAtoms>  (64) 


>  <Gold.Id.Protein>  (64) 


>  <Gold.PLP.Chemscore.CHOScore>  (64) 
1.0505

>  <Gold.PLP.Chemscore.Hbond>  (64) 
1.7200

>  <Gold.PLP.Chemscore.Internal.Correction>  (64) 
0.4216

>  <Gold.PLP.Chemscore.Metal>  (64) 
0.0000

>  <Gold.PLP.Fitness>  (64) 
47.9668

>  <Gold.PLP.PLP>  (64) 
-40.0997

>  <Gold.PLP.ligand.clash>  (64) 
0.0000

>  <Gold.PLP.ligand.torsion>  (64) 
0.4330

>  <Gold.PLP.part.buried>  (64) 
-9.4279

>  <Gold.PLP.part.hbond>  (64) 
-3.8890

>  <Gold.PLP.part.metal>  (64) 
0.0000

>  <Gold.PLP.part.nonpolar>  (64) 
-28.6925

>  <Gold.PLP.part.repulsive>  (64) 
0.8181

>  <Gold.Protein.RotatedAtoms>  (64) 


>  <Gold.Protein.RotatedTorsions>  (64) 


>  <Gold.Protein.RotatedWaterAtoms>  (64) 


>  <Gold.Version>  (64) 
5.3.0

>  <PLP.Chemscore.CHOScore>  (64) 


>  <PLP.Chemscore.Hbond>  (64) 


>  <PLP.Chemscore.Internal.Correction>  (64) 


>  <PLP.Chemscore.Metal>  (64) 


>  <PLP.Fitness>  (64) 


>  <PLP.PLP>  (64) 


>  <PLP.ligand.clash>  (64) 


>  <PLP.ligand.torsion>  (64) 


>  <PLP.part.buried>  (64) 


>  <PLP.part.hbond>  (64) 


>  <PLP.part.metal>  (64) 


>  <PLP.part.nonpolar>  (64) 


>  <PLP.part.repulsive>  (64) 


>  <Version>  (64) 


$$$$
3064|Compound_1887|Compounds_3D_F|sdf|550|dock1|1
     RDKit          3D

 18 20  0  0  0  0  0  0  0  0999 V2000
   -9.6339  -16.3709   11.5930 N   0  0  0  0  0  0  0  0  0  0  0  0
   -8.3057  -16.1498   11.6571 C   0  0  0  0  0  0  0  0  0  0  0  0
   -7.5292  -17.0709   11.5064 O   0  0  0  0  0  0  0  0  0  0  0  0
   -7.7951  -14.7829   11.9110 C   0  0  0  0  0  0  0  0  0  0  0  0
   -8.6029  -13.7357   11.7992 N   0  0  0  0  0  0  0  0  0  0  0  0
   -8.1973  -12.5370   12.0113 N   0  0  0  0  0  0  0  0  0  0  0  0
   -6.9517  -12.2635   12.3561 C   0  0  0  0  0  0  0  0  0  0  0  0
   -6.0296  -13.2878   12.4995 C   0  0  0  0  0  0  0  0  0  0  0  0
   -6.4599  -14.5895   12.2772 C   0  0  0  0  0  0  0  0  0  0  0  0
  -10.1129  -17.6526   11.3599 C   0  0  0  0  0  0  0  0  0  0  0  0
  -10.8828  -18.2647   12.2529 N   0  0  0  0  0  0  0  0  0  0  0  0
  -11.3433  -19.4840   12.0388 C   0  0  0  0  0  0  0  0  0  0  0  0
  -11.0744  -20.1607   10.9448 N   0  0  0  0  0  0  0  0  0  0  0  0
  -10.3093  -19.6274    9.9903 C   0  0  0  0  0  0  0  0  0  0  0  0
   -9.8014  -18.3274   10.1750 C   0  0  0  0  0  0  0  0  0  0  0  0
   -9.0685  -18.0602    9.0502 N   0  0  0  0  0  0  0  0  0  0  0  0
   -9.1319  -19.0892    8.2767 N   0  0  0  0  0  0  0  0  0  0  0  0
   -9.8523  -20.0251    8.7902 N   0  0  0  0  0  0  0  0  0  0  0  0
  1  2  1  0
  1 10  1  0
  2  3  2  0
  2  4  1  0
  4  5  2  0
  4  9  1  0
  5  6  1  0
  6  7  2  0
  7  8  1  0
  8  9  2  0
 10 11  2  0
 10 15  1  0
 11 12  1  0
 12 13  2  0
 13 14  1  0
 14 15  2  0
 14 18  1  0
 15 16  1  0
 16 17  1  0
 17 18  2  0
M  END
>  <Gold.Gold.Protein.RotatedWaterAtoms>  (65) 


>  <Gold.Id.Protein>  (65) 


>  <Gold.PLP.Chemscore.CHOScore>  (65) 
0.0000

>  <Gold.PLP.Chemscore.Hbond>  (65) 
2.0154

>  <Gold.PLP.Chemscore.Internal.Correction>  (65) 
0.2950

>  <Gold.PLP.Chemscore.Metal>  (65) 
0.0000

>  <Gold.PLP.Fitness>  (65) 
39.0133

>  <Gold.PLP.PLP>  (65) 
-34.0122

>  <Gold.PLP.ligand.clash>  (65) 
0.0000

>  <Gold.PLP.ligand.torsion>  (65) 
0.6700

>  <Gold.PLP.part.buried>  (65) 
-7.2485

>  <Gold.PLP.part.hbond>  (65) 
-3.7475

>  <Gold.PLP.part.metal>  (65) 
0.0000

>  <Gold.PLP.part.nonpolar>  (65) 
-23.1023

>  <Gold.PLP.part.repulsive>  (65) 
0.4508

>  <Gold.Protein.RotatedAtoms>  (65) 


>  <Gold.Protein.RotatedTorsions>  (65) 


>  <Gold.Protein.RotatedWaterAtoms>  (65) 


>  <Gold.Version>  (65) 
5.3.0

>  <PLP.Chemscore.CHOScore>  (65) 


>  <PLP.Chemscore.Hbond>  (65) 


>  <PLP.Chemscore.Internal.Correction>  (65) 


>  <PLP.Chemscore.Metal>  (65) 


>  <PLP.Fitness>  (65) 


>  <PLP.PLP>  (65) 


>  <PLP.ligand.clash>  (65) 


>  <PLP.ligand.torsion>  (65) 


>  <PLP.part.buried>  (65) 


>  <PLP.part.hbond>  (65) 


>  <PLP.part.metal>  (65) 


>  <PLP.part.nonpolar>  (65) 


>  <PLP.part.repulsive>  (65) 


>  <Version>  (65) 


$$$$
3065|Compound_1887|Compounds_3D_F|sdf|550|dock2|1
     RDKit          3D

 18 20  0  0  0  0  0  0  0  0999 V2000
   -7.4606  -15.3560   11.4421 N   0  0  0  0  0  0  0  0  0  0  0  0
   -8.1756  -14.2250   11.2785 C   0  0  0  0  0  0  0  0  0  0  0  0
   -9.3119  -14.2815   10.8546 O   0  0  0  0  0  0  0  0  0  0  0  0
   -7.5739  -12.9145   11.6165 C   0  0  0  0  0  0  0  0  0  0  0  0
   -8.2326  -11.7906   11.3622 N   0  0  0  0  0  0  0  0  0  0  0  0
   -7.7444  -10.6372   11.6407 N   0  0  0  0  0  0  0  0  0  0  0  0
   -6.5564  -10.4894   12.1995 C   0  0  0  0  0  0  0  0  0  0  0  0
   -5.7890  -11.6018   12.5050 C   0  0  0  0  0  0  0  0  0  0  0  0
   -6.3106  -12.8553   12.2122 C   0  0  0  0  0  0  0  0  0  0  0  0
   -8.0222  -16.5839   11.1209 C   0  0  0  0  0  0  0  0  0  0  0  0
   -7.3728  -17.4490   10.3498 N   0  0  0  0  0  0  0  0  0  0  0  0
   -7.8997  -18.6197   10.0397 C   0  0  0  0  0  0  0  0  0  0  0  0
   -9.0827  -18.9997   10.4678 N   0  0  0  0  0  0  0  0  0  0  0  0
   -9.8094  -18.1975   11.2484 C   0  0  0  0  0  0  0  0  0  0  0  0
   -9.2836  -16.9421   11.6079 C   0  0  0  0  0  0  0  0  0  0  0  0
  -10.2392  -16.3599   12.3963 N   0  0  0  0  0  0  0  0  0  0  0  0
  -11.2290  -17.1791   12.4973 N   0  0  0  0  0  0  0  0  0  0  0  0
  -11.0131  -18.2672   11.8430 N   0  0  0  0  0  0  0  0  0  0  0  0
  1  2  1  0
  1 10  1  0
  2  3  2  0
  2  4  1  0
  4  5  2  0
  4  9  1  0
  5  6  1  0
  6  7  2  0
  7  8  1  0
  8  9  2  0
 10 11  2  0
 10 15  1  0
 11 12  1  0
 12 13  2  0
 13 14  1  0
 14 15  2  0
 14 18  1  0
 15 16  1  0
 16 17  1  0
 17 18  2  0
M  END
>  <Gold.Gold.Protein.RotatedWaterAtoms>  (66) 


>  <Gold.Id.Protein>  (66) 


>  <Gold.PLP.Chemscore.CHOScore>  (66) 
0.4407

>  <Gold.PLP.Chemscore.Hbond>  (66) 
1.3806

>  <Gold.PLP.Chemscore.Internal.Correction>  (66) 
0.2950

>  <Gold.PLP.Chemscore.Metal>  (66) 
0.0000

>  <Gold.PLP.Fitness>  (66) 
45.2781

>  <Gold.PLP.PLP>  (66) 
-40.4284

>  <Gold.PLP.ligand.clash>  (66) 
0.0000

>  <Gold.PLP.ligand.torsion>  (66) 
0.4546

>  <Gold.PLP.part.buried>  (66) 
-10.0568

>  <Gold.PLP.part.hbond>  (66) 
-4.4717

>  <Gold.PLP.part.metal>  (66) 
0.0000

>  <Gold.PLP.part.nonpolar>  (66) 
-26.4280

>  <Gold.PLP.part.repulsive>  (66) 
1.4232

>  <Gold.Protein.RotatedAtoms>  (66) 


>  <Gold.Protein.RotatedTorsions>  (66) 


>  <Gold.Protein.RotatedWaterAtoms>  (66) 


>  <Gold.Version>  (66) 
5.3.0

>  <PLP.Chemscore.CHOScore>  (66) 


>  <PLP.Chemscore.Hbond>  (66) 


>  <PLP.Chemscore.Internal.Correction>  (66) 


>  <PLP.Chemscore.Metal>  (66) 


>  <PLP.Fitness>  (66) 


>  <PLP.PLP>  (66) 


>  <PLP.ligand.clash>  (66) 


>  <PLP.ligand.torsion>  (66) 


>  <PLP.part.buried>  (66) 


>  <PLP.part.hbond>  (66) 


>  <PLP.part.metal>  (66) 


>  <PLP.part.nonpolar>  (66) 


>  <PLP.part.repulsive>  (66) 


>  <Version>  (66) 


$$$$
3066|Compound_1887|Compounds_3D_F|sdf|550|dock3|1
     RDKit          3D

 18 20  0  0  0  0  0  0  0  0999 V2000
   -7.3239  -15.5554   11.5481 N   0  0  0  0  0  0  0  0  0  0  0  0
   -7.9875  -14.3984   11.3528 C   0  0  0  0  0  0  0  0  0  0  0  0
   -9.1077  -14.4129   10.8849 O   0  0  0  0  0  0  0  0  0  0  0  0
   -7.3490  -13.1105   11.7098 C   0  0  0  0  0  0  0  0  0  0  0  0
   -6.1080  -13.0869   12.1797 N   0  0  0  0  0  0  0  0  0  0  0  0
   -5.5216  -11.9914   12.4995 N   0  0  0  0  0  0  0  0  0  0  0  0
   -6.1106  -10.8147   12.3820 C   0  0  0  0  0  0  0  0  0  0  0  0
   -7.4071  -10.7317   11.9004 C   0  0  0  0  0  0  0  0  0  0  0  0
   -8.0490  -11.9115   11.5465 C   0  0  0  0  0  0  0  0  0  0  0  0
   -7.9199  -16.7622   11.2091 C   0  0  0  0  0  0  0  0  0  0  0  0
   -7.2670  -17.6645   10.4849 N   0  0  0  0  0  0  0  0  0  0  0  0
   -7.8265  -18.8155   10.1584 C   0  0  0  0  0  0  0  0  0  0  0  0
   -9.0469  -19.1386   10.5236 N   0  0  0  0  0  0  0  0  0  0  0  0
   -9.7801  -18.2958   11.2536 C   0  0  0  0  0  0  0  0  0  0  0  0
   -9.2208  -17.0594   11.6285 C   0  0  0  0  0  0  0  0  0  0  0  0
  -10.1923  -16.4264   12.3558 N   0  0  0  0  0  0  0  0  0  0  0  0
  -11.2210  -17.2010   12.4101 N   0  0  0  0  0  0  0  0  0  0  0  0
  -11.0168  -18.3058   11.7806 N   0  0  0  0  0  0  0  0  0  0  0  0
  1  2  1  0
  1 10  1  0
  2  3  2  0
  2  4  1  0
  4  5  2  0
  4  9  1  0
  5  6  1  0
  6  7  2  0
  7  8  1  0
  8  9  2  0
 10 11  2  0
 10 15  1  0
 11 12  1  0
 12 13  2  0
 13 14  1  0
 14 15  2  0
 14 18  1  0
 15 16  1  0
 16 17  1  0
 17 18  2  0
M  END
>  <Gold.Gold.Protein.RotatedWaterAtoms>  (67) 


>  <Gold.Id.Protein>  (67) 


>  <Gold.PLP.Chemscore.CHOScore>  (67) 
1.0379

>  <Gold.PLP.Chemscore.Hbond>  (67) 
1.0000

>  <Gold.PLP.Chemscore.Internal.Correction>  (67) 
0.2950

>  <Gold.PLP.Chemscore.Metal>  (67) 
0.0000

>  <Gold.PLP.Fitness>  (67) 
45.2914

>  <Gold.PLP.PLP>  (67) 
-39.7405

>  <Gold.PLP.ligand.clash>  (67) 
0.0000

>  <Gold.PLP.ligand.torsion>  (67) 
0.4288

>  <Gold.PLP.part.buried>  (67) 
-10.3449

>  <Gold.PLP.part.hbond>  (67) 
-3.9765

>  <Gold.PLP.part.metal>  (67) 
0.0000

>  <Gold.PLP.part.nonpolar>  (67) 
-27.2161

>  <Gold.PLP.part.repulsive>  (67) 
1.0593

>  <Gold.Protein.RotatedAtoms>  (67) 


>  <Gold.Protein.RotatedTorsions>  (67) 


>  <Gold.Protein.RotatedWaterAtoms>  (67) 


>  <Gold.Version>  (67) 
5.3.0

>  <PLP.Chemscore.CHOScore>  (67) 


>  <PLP.Chemscore.Hbond>  (67) 


>  <PLP.Chemscore.Internal.Correction>  (67) 


>  <PLP.Chemscore.Metal>  (67) 


>  <PLP.Fitness>  (67) 


>  <PLP.PLP>  (67) 


>  <PLP.ligand.clash>  (67) 


>  <PLP.ligand.torsion>  (67) 


>  <PLP.part.buried>  (67) 


>  <PLP.part.hbond>  (67) 


>  <PLP.part.metal>  (67) 


>  <PLP.part.nonpolar>  (67) 


>  <PLP.part.repulsive>  (67) 


>  <Version>  (67) 


$$$$
3067|Compound_1887|Compounds_3D_F|sdf|550|dock4|1
     RDKit          3D

 18 20  0  0  0  0  0  0  0  0999 V2000
   -9.0043  -17.6450   11.5978 N   0  0  0  0  0  0  0  0  0  0  0  0
   -8.9667  -16.3492   11.9672 C   0  0  0  0  0  0  0  0  0  0  0  0
  -10.0009  -15.7385   12.1446 O   0  0  0  0  0  0  0  0  0  0  0  0
   -7.6632  -15.6718   12.1564 C   0  0  0  0  0  0  0  0  0  0  0  0
   -7.6083  -14.3526   12.2910 N   0  0  0  0  0  0  0  0  0  0  0  0
   -6.4984  -13.7305   12.4566 N   0  0  0  0  0  0  0  0  0  0  0  0
   -5.3372  -14.3587   12.5061 C   0  0  0  0  0  0  0  0  0  0  0  0
   -5.2870  -15.7373   12.3759 C   0  0  0  0  0  0  0  0  0  0  0  0
   -6.4835  -16.4206   12.2013 C   0  0  0  0  0  0  0  0  0  0  0  0
  -10.2255  -18.2788   11.4156 C   0  0  0  0  0  0  0  0  0  0  0  0
  -11.3072  -17.8750   12.0728 N   0  0  0  0  0  0  0  0  0  0  0  0
  -12.4732  -18.4721   11.9049 C   0  0  0  0  0  0  0  0  0  0  0  0
  -12.6372  -19.4890   11.0887 N   0  0  0  0  0  0  0  0  0  0  0  0
  -11.6078  -19.9646   10.3851 C   0  0  0  0  0  0  0  0  0  0  0  0
  -10.3474  -19.3543   10.5296 C   0  0  0  0  0  0  0  0  0  0  0  0
   -9.5100  -20.0482    9.6984 N   0  0  0  0  0  0  0  0  0  0  0  0
  -10.1959  -20.9730    9.1194 N   0  0  0  0  0  0  0  0  0  0  0  0
  -11.4286  -20.9535    9.4922 N   0  0  0  0  0  0  0  0  0  0  0  0
  1  2  1  0
  1 10  1  0
  2  3  2  0
  2  4  1  0
  4  5  2  0
  4  9  1  0
  5  6  1  0
  6  7  2  0
  7  8  1  0
  8  9  2  0
 10 11  2  0
 10 15  1  0
 11 12  1  0
 12 13  2  0
 13 14  1  0
 14 15  2  0
 14 18  1  0
 15 16  1  0
 16 17  1  0
 17 18  2  0
M  END
>  <Gold.Gold.Protein.RotatedWaterAtoms>  (68) 


>  <Gold.Id.Protein>  (68) 


>  <Gold.PLP.Chemscore.CHOScore>  (68) 
1.0000

>  <Gold.PLP.Chemscore.Hbond>  (68) 
1.6110

>  <Gold.PLP.Chemscore.Internal.Correction>  (68) 
0.2950

>  <Gold.PLP.Chemscore.Metal>  (68) 
0.0000

>  <Gold.PLP.Fitness>  (68) 
38.8992

>  <Gold.PLP.PLP>  (68) 
-31.2191

>  <Gold.PLP.ligand.clash>  (68) 
0.0000

>  <Gold.PLP.ligand.torsion>  (68) 
0.2240

>  <Gold.PLP.part.buried>  (68) 
-7.9273

>  <Gold.PLP.part.hbond>  (68) 
-1.7822

>  <Gold.PLP.part.metal>  (68) 
0.0000

>  <Gold.PLP.part.nonpolar>  (68) 
-22.8349

>  <Gold.PLP.part.repulsive>  (68) 
0.5294

>  <Gold.Protein.RotatedAtoms>  (68) 


>  <Gold.Protein.RotatedTorsions>  (68) 


>  <Gold.Protein.RotatedWaterAtoms>  (68) 


>  <Gold.Version>  (68) 
5.3.0

>  <PLP.Chemscore.CHOScore>  (68) 


>  <PLP.Chemscore.Hbond>  (68) 


>  <PLP.Chemscore.Internal.Correction>  (68) 


>  <PLP.Chemscore.Metal>  (68) 


>  <PLP.Fitness>  (68) 


>  <PLP.PLP>  (68) 


>  <PLP.ligand.clash>  (68) 


>  <PLP.ligand.torsion>  (68) 


>  <PLP.part.buried>  (68) 


>  <PLP.part.hbond>  (68) 


>  <PLP.part.metal>  (68) 


>  <PLP.part.nonpolar>  (68) 


>  <PLP.part.repulsive>  (68) 


>  <Version>  (68) 


$$$$
3068|Compound_1887|Compounds_3D_F|sdf|550|dock5|1
     RDKit          3D

 18 20  0  0  0  0  0  0  0  0999 V2000
   -9.1679  -17.9267   11.5610 N   0  0  0  0  0  0  0  0  0  0  0  0
   -8.8935  -16.6268   11.7890 C   0  0  0  0  0  0  0  0  0  0  0  0
   -9.7990  -15.8247   11.8932 O   0  0  0  0  0  0  0  0  0  0  0  0
   -7.4872  -16.1786   11.9124 C   0  0  0  0  0  0  0  0  0  0  0  0
   -6.4926  -17.0362   11.7209 N   0  0  0  0  0  0  0  0  0  0  0  0
   -5.2624  -16.6853   11.8189 N   0  0  0  0  0  0  0  0  0  0  0  0
   -4.9020  -15.4493   12.1148 C   0  0  0  0  0  0  0  0  0  0  0  0
   -5.8656  -14.4780   12.3333 C   0  0  0  0  0  0  0  0  0  0  0  0
   -7.2004  -14.8464   12.2246 C   0  0  0  0  0  0  0  0  0  0  0  0
  -10.4853  -18.3464   11.4404 C   0  0  0  0  0  0  0  0  0  0  0  0
  -11.4433  -17.8057   12.1852 N   0  0  0  0  0  0  0  0  0  0  0  0
  -12.6995  -18.1988   12.0764 C   0  0  0  0  0  0  0  0  0  0  0  0
  -13.0781  -19.1360   11.2365 N   0  0  0  0  0  0  0  0  0  0  0  0
  -12.1862  -19.7369   10.4464 C   0  0  0  0  0  0  0  0  0  0  0  0
  -10.8364  -19.3449   10.5258 C   0  0  0  0  0  0  0  0  0  0  0  0
  -10.1772  -20.1240    9.6137 N   0  0  0  0  0  0  0  0  0  0  0  0
  -11.0399  -20.8978    9.0497 N   0  0  0  0  0  0  0  0  0  0  0  0
  -12.2271  -20.6980    9.5073 N   0  0  0  0  0  0  0  0  0  0  0  0
  1  2  1  0
  1 10  1  0
  2  3  2  0
  2  4  1  0
  4  5  2  0
  4  9  1  0
  5  6  1  0
  6  7  2  0
  7  8  1  0
  8  9  2  0
 10 11  2  0
 10 15  1  0
 11 12  1  0
 12 13  2  0
 13 14  1  0
 14 15  2  0
 14 18  1  0
 15 16  1  0
 16 17  1  0
 17 18  2  0
M  END
>  <Gold.Gold.Protein.RotatedWaterAtoms>  (69) 


>  <Gold.Id.Protein>  (69) 


>  <Gold.PLP.Chemscore.CHOScore>  (69) 
1.1963

>  <Gold.PLP.Chemscore.Hbond>  (69) 
1.8000

>  <Gold.PLP.Chemscore.Internal.Correction>  (69) 
0.2950

>  <Gold.PLP.Chemscore.Metal>  (69) 
0.0000

>  <Gold.PLP.Fitness>  (69) 
39.8375

>  <Gold.PLP.PLP>  (69) 
-31.1066

>  <Gold.PLP.ligand.clash>  (69) 
0.0000

>  <Gold.PLP.ligand.torsion>  (69) 
0.2765

>  <Gold.PLP.part.buried>  (69) 
-7.6846

>  <Gold.PLP.part.hbond>  (69) 
-2.3265

>  <Gold.PLP.part.metal>  (69) 
0.0000

>  <Gold.PLP.part.nonpolar>  (69) 
-21.5170

>  <Gold.PLP.part.repulsive>  (69) 
0.3899

>  <Gold.Protein.RotatedAtoms>  (69) 


>  <Gold.Protein.RotatedTorsions>  (69) 


>  <Gold.Protein.RotatedWaterAtoms>  (69) 


>  <Gold.Version>  (69) 
5.3.0

>  <PLP.Chemscore.CHOScore>  (69) 


>  <PLP.Chemscore.Hbond>  (69) 


>  <PLP.Chemscore.Internal.Correction>  (69) 


>  <PLP.Chemscore.Metal>  (69) 


>  <PLP.Fitness>  (69) 


>  <PLP.PLP>  (69) 


>  <PLP.ligand.clash>  (69) 


>  <PLP.ligand.torsion>  (69) 


>  <PLP.part.buried>  (69) 


>  <PLP.part.hbond>  (69) 


>  <PLP.part.metal>  (69) 


>  <PLP.part.nonpolar>  (69) 


>  <PLP.part.repulsive>  (69) 


>  <Version>  (69) 


$$$$
3069|Compound_1887|Compounds_3D_F|sdf|550|dock6|1
     RDKit          3D

 18 20  0  0  0  0  0  0  0  0999 V2000
   -9.9006  -16.6676   11.5691 N   0  0  0  0  0  0  0  0  0  0  0  0
   -8.6638  -16.1558   11.7284 C   0  0  0  0  0  0  0  0  0  0  0  0
   -7.7177  -16.8973   11.8995 O   0  0  0  0  0  0  0  0  0  0  0  0
   -8.4604  -14.6891   11.6942 C   0  0  0  0  0  0  0  0  0  0  0  0
   -9.4506  -13.8850   11.3274 N   0  0  0  0  0  0  0  0  0  0  0  0
   -9.3126  -12.6101   11.2856 N   0  0  0  0  0  0  0  0  0  0  0  0
   -8.1791  -12.0116   11.6053 C   0  0  0  0  0  0  0  0  0  0  0  0
   -7.0845  -12.7628   12.0019 C   0  0  0  0  0  0  0  0  0  0  0  0
   -7.2250  -14.1436   12.0554 C   0  0  0  0  0  0  0  0  0  0  0  0
  -10.0924  -18.0417   11.6061 C   0  0  0  0  0  0  0  0  0  0  0  0
  -11.0487  -18.5760   12.3578 N   0  0  0  0  0  0  0  0  0  0  0  0
  -11.2383  -19.8824   12.3983 C   0  0  0  0  0  0  0  0  0  0  0  0
  -10.5049  -20.7263   11.7076 N   0  0  0  0  0  0  0  0  0  0  0  0
   -9.5204  -20.2825   10.9235 C   0  0  0  0  0  0  0  0  0  0  0  0
   -9.2868  -18.8964   10.8464 C   0  0  0  0  0  0  0  0  0  0  0  0
   -8.2358  -18.7523    9.9814 N   0  0  0  0  0  0  0  0  0  0  0  0
   -7.8801  -19.9256    9.5840 N   0  0  0  0  0  0  0  0  0  0  0  0
   -8.6108  -20.8466   10.1100 N   0  0  0  0  0  0  0  0  0  0  0  0
  1  2  1  0
  1 10  1  0
  2  3  2  0
  2  4  1  0
  4  5  2  0
  4  9  1  0
  5  6  1  0
  6  7  2  0
  7  8  1  0
  8  9  2  0
 10 11  2  0
 10 15  1  0
 11 12  1  0
 12 13  2  0
 13 14  1  0
 14 15  2  0
 14 18  1  0
 15 16  1  0
 16 17  1  0
 17 18  2  0
M  END
>  <Gold.Gold.Protein.RotatedWaterAtoms>  (70) 


>  <Gold.Id.Protein>  (70) 


>  <Gold.PLP.Chemscore.CHOScore>  (70) 
0.0000

>  <Gold.PLP.Chemscore.Hbond>  (70) 
2.5600

>  <Gold.PLP.Chemscore.Internal.Correction>  (70) 
0.2950

>  <Gold.PLP.Chemscore.Metal>  (70) 
0.0000

>  <Gold.PLP.Fitness>  (70) 
41.4130

>  <Gold.PLP.PLP>  (70) 
-34.3726

>  <Gold.PLP.ligand.clash>  (70) 
0.0000

>  <Gold.PLP.ligand.torsion>  (70) 
0.4673

>  <Gold.PLP.part.buried>  (70) 
-6.6764

>  <Gold.PLP.part.hbond>  (70) 
-2.8941

>  <Gold.PLP.part.metal>  (70) 
0.0000

>  <Gold.PLP.part.nonpolar>  (70) 
-24.4802

>  <Gold.PLP.part.repulsive>  (70) 
0.4535

>  <Gold.Protein.RotatedAtoms>  (70) 


>  <Gold.Protein.RotatedTorsions>  (70) 


>  <Gold.Protein.RotatedWaterAtoms>  (70) 


>  <Gold.Version>  (70) 
5.3.0

>  <PLP.Chemscore.CHOScore>  (70) 


>  <PLP.Chemscore.Hbond>  (70) 


>  <PLP.Chemscore.Internal.Correction>  (70) 


>  <PLP.Chemscore.Metal>  (70) 


>  <PLP.Fitness>  (70) 


>  <PLP.PLP>  (70) 


>  <PLP.ligand.clash>  (70) 


>  <PLP.ligand.torsion>  (70) 


>  <PLP.part.buried>  (70) 


>  <PLP.part.hbond>  (70) 


>  <PLP.part.metal>  (70) 


>  <PLP.part.nonpolar>  (70) 


>  <PLP.part.repulsive>  (70) 


>  <Version>  (70) 


$$$$
3070|Compound_1887|Compounds_3D_F|sdf|550|dock7|1
     RDKit          3D

 18 20  0  0  0  0  0  0  0  0999 V2000
   -8.0872  -16.3611   11.8195 N   0  0  0  0  0  0  0  0  0  0  0  0
   -8.5017  -15.0791   11.8607 C   0  0  0  0  0  0  0  0  0  0  0  0
   -9.6764  -14.8158   11.7030 O   0  0  0  0  0  0  0  0  0  0  0  0
   -7.5232  -13.9930   12.0987 C   0  0  0  0  0  0  0  0  0  0  0  0
   -7.8807  -12.7245   11.9417 N   0  0  0  0  0  0  0  0  0  0  0  0
   -7.0615  -11.7567   12.1386 N   0  0  0  0  0  0  0  0  0  0  0  0
   -5.8099  -11.9557   12.5116 C   0  0  0  0  0  0  0  0  0  0  0  0
   -5.3384  -13.2444   12.7028 C   0  0  0  0  0  0  0  0  0  0  0  0
   -6.2186  -14.2989   12.4973 C   0  0  0  0  0  0  0  0  0  0  0  0
   -9.0030  -17.3788   11.5916 C   0  0  0  0  0  0  0  0  0  0  0  0
  -10.2809  -17.2322   11.9241 N   0  0  0  0  0  0  0  0  0  0  0  0
  -11.1589  -18.1954   11.7103 C   0  0  0  0  0  0  0  0  0  0  0  0
  -10.8309  -19.3440   11.1624 N   0  0  0  0  0  0  0  0  0  0  0  0
   -9.5705  -19.5828   10.7948 C   0  0  0  0  0  0  0  0  0  0  0  0
   -8.6026  -18.5812   10.9997 C   0  0  0  0  0  0  0  0  0  0  0  0
   -7.4291  -19.1085   10.5321 N   0  0  0  0  0  0  0  0  0  0  0  0
   -7.6698  -20.2967   10.0947 N   0  0  0  0  0  0  0  0  0  0  0  0
   -8.9124  -20.6085   10.2273 N   0  0  0  0  0  0  0  0  0  0  0  0
  1  2  1  0
  1 10  1  0
  2  3  2  0
  2  4  1  0
  4  5  2  0
  4  9  1  0
  5  6  1  0
  6  7  2  0
  7  8  1  0
  8  9  2  0
 10 11  2  0
 10 15  1  0
 11 12  1  0
 12 13  2  0
 13 14  1  0
 14 15  2  0
 14 18  1  0
 15 16  1  0
 16 17  1  0
 17 18  2  0
M  END
>  <Gold.Gold.Protein.RotatedWaterAtoms>  (71) 


>  <Gold.Id.Protein>  (71) 


>  <Gold.PLP.Chemscore.CHOScore>  (71) 
0.5897

>  <Gold.PLP.Chemscore.Hbond>  (71) 
0.9120

>  <Gold.PLP.Chemscore.Internal.Correction>  (71) 
0.2950

>  <Gold.PLP.Chemscore.Metal>  (71) 
0.0000

>  <Gold.PLP.Fitness>  (71) 
41.0602

>  <Gold.PLP.PLP>  (71) 
-36.6654

>  <Gold.PLP.ligand.clash>  (71) 
0.0000

>  <Gold.PLP.ligand.torsion>  (71) 
0.2026

>  <Gold.PLP.part.buried>  (71) 
-8.8552

>  <Gold.PLP.part.hbond>  (71) 
-1.2323

>  <Gold.PLP.part.metal>  (71) 
0.0000

>  <Gold.PLP.part.nonpolar>  (71) 
-27.4523

>  <Gold.PLP.part.repulsive>  (71) 
0.5068

>  <Gold.Protein.RotatedAtoms>  (71) 


>  <Gold.Protein.RotatedTorsions>  (71) 


>  <Gold.Protein.RotatedWaterAtoms>  (71) 


>  <Gold.Version>  (71) 
5.3.0

>  <PLP.Chemscore.CHOScore>  (71) 


>  <PLP.Chemscore.Hbond>  (71) 


>  <PLP.Chemscore.Internal.Correction>  (71) 


>  <PLP.Chemscore.Metal>  (71) 


>  <PLP.Fitness>  (71) 


>  <PLP.PLP>  (71) 


>  <PLP.ligand.clash>  (71) 


>  <PLP.ligand.torsion>  (71) 


>  <PLP.part.buried>  (71) 


>  <PLP.part.hbond>  (71) 


>  <PLP.part.metal>  (71) 


>  <PLP.part.nonpolar>  (71) 


>  <PLP.part.repulsive>  (71) 


>  <Version>  (71) 


$$$$
3071|Compound_1887|Compounds_3D_F|sdf|550|dock8|1
     RDKit          3D

 18 20  0  0  0  0  0  0  0  0999 V2000
   -7.2187  -15.7564   11.6746 N   0  0  0  0  0  0  0  0  0  0  0  0
   -7.8387  -14.5997   11.3668 C   0  0  0  0  0  0  0  0  0  0  0  0
   -8.9118  -14.6188   10.7991 O   0  0  0  0  0  0  0  0  0  0  0  0
   -7.2100  -13.3065   11.7219 C   0  0  0  0  0  0  0  0  0  0  0  0
   -7.8932  -12.1751   11.6007 N   0  0  0  0  0  0  0  0  0  0  0  0
   -7.3828  -11.0362   11.8984 N   0  0  0  0  0  0  0  0  0  0  0  0
   -6.1462  -10.9118   12.3464 C   0  0  0  0  0  0  0  0  0  0  0  0
   -5.3499  -12.0340   12.5087 C   0  0  0  0  0  0  0  0  0  0  0  0
   -5.8946  -13.2722   12.1940 C   0  0  0  0  0  0  0  0  0  0  0  0
   -7.8051  -16.9684   11.3376 C   0  0  0  0  0  0  0  0  0  0  0  0
   -7.1083  -17.9120   10.7139 N   0  0  0  0  0  0  0  0  0  0  0  0
   -7.6584  -19.0683   10.3901 C   0  0  0  0  0  0  0  0  0  0  0  0
   -8.9118  -19.3566   10.6601 N   0  0  0  0  0  0  0  0  0  0  0  0
   -9.6903  -18.4709   11.2850 C   0  0  0  0  0  0  0  0  0  0  0  0
   -9.1430  -17.2273   11.6533 C   0  0  0  0  0  0  0  0  0  0  0  0
  -10.1624  -16.5478   12.2638 N   0  0  0  0  0  0  0  0  0  0  0  0
  -11.2061  -17.3039   12.2610 N   0  0  0  0  0  0  0  0  0  0  0  0
  -10.9683  -18.4390   11.7009 N   0  0  0  0  0  0  0  0  0  0  0  0
  1  2  1  0
  1 10  1  0
  2  3  2  0
  2  4  1  0
  4  5  2  0
  4  9  1  0
  5  6  1  0
  6  7  2  0
  7  8  1  0
  8  9  2  0
 10 11  2  0
 10 15  1  0
 11 12  1  0
 12 13  2  0
 13 14  1  0
 14 15  2  0
 14 18  1  0
 15 16  1  0
 16 17  1  0
 17 18  2  0
M  END
>  <Gold.Gold.Protein.RotatedWaterAtoms>  (72) 


>  <Gold.Id.Protein>  (72) 


>  <Gold.PLP.Chemscore.CHOScore>  (72) 
0.7810

>  <Gold.PLP.Chemscore.Hbond>  (72) 
1.0000

>  <Gold.PLP.Chemscore.Internal.Correction>  (72) 
0.2950

>  <Gold.PLP.Chemscore.Metal>  (72) 
0.0000

>  <Gold.PLP.Fitness>  (72) 
44.5008

>  <Gold.PLP.PLP>  (72) 
-39.8069

>  <Gold.PLP.ligand.clash>  (72) 
0.0000

>  <Gold.PLP.ligand.torsion>  (72) 
0.4721

>  <Gold.PLP.part.buried>  (72) 
-10.5961

>  <Gold.PLP.part.hbond>  (72) 
-3.9910

>  <Gold.PLP.part.metal>  (72) 
0.0000

>  <Gold.PLP.part.nonpolar>  (72) 
-26.9087

>  <Gold.PLP.part.repulsive>  (72) 
0.7358

>  <Gold.Protein.RotatedAtoms>  (72) 


>  <Gold.Protein.RotatedTorsions>  (72) 


>  <Gold.Protein.RotatedWaterAtoms>  (72) 


>  <Gold.Version>  (72) 
5.3.0

>  <PLP.Chemscore.CHOScore>  (72) 


>  <PLP.Chemscore.Hbond>  (72) 


>  <PLP.Chemscore.Internal.Correction>  (72) 


>  <PLP.Chemscore.Metal>  (72) 


>  <PLP.Fitness>  (72) 


>  <PLP.PLP>  (72) 


>  <PLP.ligand.clash>  (72) 


>  <PLP.ligand.torsion>  (72) 


>  <PLP.part.buried>  (72) 


>  <PLP.part.hbond>  (72) 


>  <PLP.part.metal>  (72) 


>  <PLP.part.nonpolar>  (72) 


>  <PLP.part.repulsive>  (72) 


>  <Version>  (72) 


$$$$
3072|Compound_1893|Compounds_3D_F|sdf|551|dock1|1
     RDKit          3D

 18 19  0  0  0  0  0  0  0  0999 V2000
   -9.2303  -17.4020   11.5327 N   0  0  0  0  0  0  0  0  0  0  0  0
   -9.0366  -16.1444   11.9777 C   0  0  0  0  0  0  0  0  0  0  0  0
   -9.9852  -15.4727   12.3321 O   0  0  0  0  0  0  0  0  0  0  0  0
   -7.6680  -15.5823   12.0348 C   0  0  0  0  0  0  0  0  0  0  0  0
   -6.6204  -16.3411   11.7335 N   0  0  0  0  0  0  0  0  0  0  0  0
   -5.4197  -15.8904   11.7711 N   0  0  0  0  0  0  0  0  0  0  0  0
   -5.1436  -14.6436   12.1095 C   0  0  0  0  0  0  0  0  0  0  0  0
   -6.1673  -13.7709   12.4416 C   0  0  0  0  0  0  0  0  0  0  0  0
   -7.4712  -14.2475   12.3991 C   0  0  0  0  0  0  0  0  0  0  0  0
  -10.5116  -17.9273   11.4743 C   0  0  0  0  0  0  0  0  0  0  0  0
  -11.2593  -18.2655   12.4957 N   0  0  0  0  0  0  0  0  0  0  0  0
  -12.3858  -18.7157   12.0688 N   0  0  0  0  0  0  0  0  0  0  0  0
  -12.4016  -18.6824   10.7672 C   0  0  0  0  0  0  0  0  0  0  0  0
  -11.2215  -18.1780   10.3594 O   0  0  0  0  0  0  0  0  0  0  0  0
  -13.5371  -19.1219    9.8799 C   0  0  0  0  0  0  0  0  0  0  0  0
  -14.0549  -18.0145    9.2009 F   0  0  0  0  0  0  0  0  0  0  0  0
  -13.0688  -20.0598    8.9533 F   0  0  0  0  0  0  0  0  0  0  0  0
  -14.5424  -19.7020   10.6622 F   0  0  0  0  0  0  0  0  0  0  0  0
  1  2  1  0
  1 10  1  0
  2  3  2  0
  2  4  1  0
  4  5  2  0
  4  9  1  0
  5  6  1  0
  6  7  2  0
  7  8  1  0
  8  9  2  0
 10 11  2  0
 10 14  1  0
 11 12  1  0
 12 13  2  0
 13 14  1  0
 13 15  1  0
 15 16  1  0
 15 17  1  0
 15 18  1  0
M  END
>  <Gold.Gold.Protein.RotatedWaterAtoms>  (73) 


>  <Gold.Id.Protein>  (73) 


>  <Gold.PLP.Chemscore.CHOScore>  (73) 
1.6123

>  <Gold.PLP.Chemscore.Hbond>  (73) 
1.8284

>  <Gold.PLP.Chemscore.Internal.Correction>  (73) 
0.0021

>  <Gold.PLP.Chemscore.Metal>  (73) 
0.0000

>  <Gold.PLP.Fitness>  (73) 
48.5851

>  <Gold.PLP.PLP>  (73) 
-39.8101

>  <Gold.PLP.ligand.clash>  (73) 
0.0000

>  <Gold.PLP.ligand.torsion>  (73) 
0.7746

>  <Gold.PLP.part.buried>  (73) 
-5.0871

>  <Gold.PLP.part.hbond>  (73) 
-2.2794

>  <Gold.PLP.part.metal>  (73) 
0.0000

>  <Gold.PLP.part.nonpolar>  (73) 
-33.2004

>  <Gold.PLP.part.repulsive>  (73) 
0.4419

>  <Gold.Protein.RotatedAtoms>  (73) 


>  <Gold.Protein.RotatedTorsions>  (73) 


>  <Gold.Protein.RotatedWaterAtoms>  (73) 


>  <Gold.Version>  (73) 
5.3.0

>  <PLP.Chemscore.CHOScore>  (73) 


>  <PLP.Chemscore.Hbond>  (73) 


>  <PLP.Chemscore.Internal.Correction>  (73) 


>  <PLP.Chemscore.Metal>  (73) 


>  <PLP.Fitness>  (73) 


>  <PLP.PLP>  (73) 


>  <PLP.ligand.clash>  (73) 


>  <PLP.ligand.torsion>  (73) 


>  <PLP.part.buried>  (73) 


>  <PLP.part.hbond>  (73) 


>  <PLP.part.metal>  (73) 


>  <PLP.part.nonpolar>  (73) 


>  <PLP.part.repulsive>  (73) 


>  <Version>  (73) 


$$$$
3073|Compound_1893|Compounds_3D_F|sdf|551|dock2|1
     RDKit          3D

 18 19  0  0  0  0  0  0  0  0999 V2000
   -9.2926  -17.6662   11.4629 N   0  0  0  0  0  0  0  0  0  0  0  0
   -9.1011  -16.4084   11.9084 C   0  0  0  0  0  0  0  0  0  0  0  0
  -10.0533  -15.7296   12.2387 O   0  0  0  0  0  0  0  0  0  0  0  0
   -7.7306  -15.8549   11.9951 C   0  0  0  0  0  0  0  0  0  0  0  0
   -6.6775  -16.6587   11.8999 N   0  0  0  0  0  0  0  0  0  0  0  0
   -5.4750  -16.2169   11.9701 N   0  0  0  0  0  0  0  0  0  0  0  0
   -5.2022  -14.9354   12.1397 C   0  0  0  0  0  0  0  0  0  0  0  0
   -6.2316  -14.0146   12.2502 C   0  0  0  0  0  0  0  0  0  0  0  0
   -7.5371  -14.4820   12.1704 C   0  0  0  0  0  0  0  0  0  0  0  0
  -10.5756  -18.1836   11.3768 C   0  0  0  0  0  0  0  0  0  0  0  0
  -11.2705  -18.7038   12.3581 N   0  0  0  0  0  0  0  0  0  0  0  0
  -12.4177  -19.0806   11.9153 N   0  0  0  0  0  0  0  0  0  0  0  0
  -12.4998  -18.8170   10.6428 C   0  0  0  0  0  0  0  0  0  0  0  0
  -11.3417  -18.2384   10.2722 O   0  0  0  0  0  0  0  0  0  0  0  0
  -13.6795  -19.1017    9.7499 C   0  0  0  0  0  0  0  0  0  0  0  0
  -14.6982  -19.6996   10.4983 F   0  0  0  0  0  0  0  0  0  0  0  0
  -14.1472  -17.9036    9.1992 F   0  0  0  0  0  0  0  0  0  0  0  0
  -13.2875  -19.9656    8.7208 F   0  0  0  0  0  0  0  0  0  0  0  0
  1  2  1  0
  1 10  1  0
  2  3  2  0
  2  4  1  0
  4  5  2  0
  4  9  1  0
  5  6  1  0
  6  7  2  0
  7  8  1  0
  8  9  2  0
 10 11  2  0
 10 14  1  0
 11 12  1  0
 12 13  2  0
 13 14  1  0
 13 15  1  0
 15 16  1  0
 15 17  1  0
 15 18  1  0
M  END
>  <Gold.Gold.Protein.RotatedWaterAtoms>  (74) 


>  <Gold.Id.Protein>  (74) 


>  <Gold.PLP.Chemscore.CHOScore>  (74) 
1.3911

>  <Gold.PLP.Chemscore.Hbond>  (74) 
1.1706

>  <Gold.PLP.Chemscore.Internal.Correction>  (74) 
0.0021

>  <Gold.PLP.Chemscore.Metal>  (74) 
0.0000

>  <Gold.PLP.Fitness>  (74) 
48.0215

>  <Gold.PLP.PLP>  (74) 
-41.9790

>  <Gold.PLP.ligand.clash>  (74) 
0.0000

>  <Gold.PLP.ligand.torsion>  (74) 
0.8224

>  <Gold.PLP.part.buried>  (74) 
-6.4122

>  <Gold.PLP.part.hbond>  (74) 
-1.9012

>  <Gold.PLP.part.metal>  (74) 
0.0000

>  <Gold.PLP.part.nonpolar>  (74) 
-31.7117

>  <Gold.PLP.part.repulsive>  (74) 
0.3211

>  <Gold.Protein.RotatedAtoms>  (74) 


>  <Gold.Protein.RotatedTorsions>  (74) 


>  <Gold.Protein.RotatedWaterAtoms>  (74) 


>  <Gold.Version>  (74) 
5.3.0

>  <PLP.Chemscore.CHOScore>  (74) 


>  <PLP.Chemscore.Hbond>  (74) 


>  <PLP.Chemscore.Internal.Correction>  (74) 


>  <PLP.Chemscore.Metal>  (74) 


>  <PLP.Fitness>  (74) 


>  <PLP.PLP>  (74) 


>  <PLP.ligand.clash>  (74) 


>  <PLP.ligand.torsion>  (74) 


>  <PLP.part.buried>  (74) 


>  <PLP.part.hbond>  (74) 


>  <PLP.part.metal>  (74) 


>  <PLP.part.nonpolar>  (74) 


>  <PLP.part.repulsive>  (74) 


>  <Version>  (74) 


$$$$
3074|Compound_1893|Compounds_3D_F|sdf|551|dock3|1
     RDKit          3D

 18 19  0  0  0  0  0  0  0  0999 V2000
   -9.3663  -16.8137   11.4457 N   0  0  0  0  0  0  0  0  0  0  0  0
   -9.2338  -15.6607   12.1313 C   0  0  0  0  0  0  0  0  0  0  0  0
  -10.1873  -15.1918   12.7209 O   0  0  0  0  0  0  0  0  0  0  0  0
   -7.9266  -14.9663   12.1657 C   0  0  0  0  0  0  0  0  0  0  0  0
   -6.8083  -15.6328   11.9023 N   0  0  0  0  0  0  0  0  0  0  0  0
   -5.6572  -15.0664   11.9220 N   0  0  0  0  0  0  0  0  0  0  0  0
   -5.5056  -13.7846   12.2033 C   0  0  0  0  0  0  0  0  0  0  0  0
   -6.6113  -13.0012   12.4923 C   0  0  0  0  0  0  0  0  0  0  0  0
   -7.8625  -13.6036   12.4687 C   0  0  0  0  0  0  0  0  0  0  0  0
  -10.5909  -17.4619   11.4088 C   0  0  0  0  0  0  0  0  0  0  0  0
  -11.3657  -17.7165   12.4342 N   0  0  0  0  0  0  0  0  0  0  0  0
  -12.4211  -18.3299   12.0292 N   0  0  0  0  0  0  0  0  0  0  0  0
  -12.3619  -18.4895   10.7383 C   0  0  0  0  0  0  0  0  0  0  0  0
  -11.2083  -17.9400   10.3134 O   0  0  0  0  0  0  0  0  0  0  0  0
  -13.3997  -19.1609    9.8767 C   0  0  0  0  0  0  0  0  0  0  0  0
  -12.8194  -20.2389    9.2010 F   0  0  0  0  0  0  0  0  0  0  0  0
  -14.4458  -19.6239   10.6821 F   0  0  0  0  0  0  0  0  0  0  0  0
  -13.8994  -18.2415    8.9471 F   0  0  0  0  0  0  0  0  0  0  0  0
  1  2  1  0
  1 10  1  0
  2  3  2  0
  2  4  1  0
  4  5  2  0
  4  9  1  0
  5  6  1  0
  6  7  2  0
  7  8  1  0
  8  9  2  0
 10 11  2  0
 10 14  1  0
 11 12  1  0
 12 13  2  0
 13 14  1  0
 13 15  1  0
 15 16  1  0
 15 17  1  0
 15 18  1  0
M  END
>  <Gold.Gold.Protein.RotatedWaterAtoms>  (75) 


>  <Gold.Id.Protein>  (75) 


>  <Gold.PLP.Chemscore.CHOScore>  (75) 
1.1295

>  <Gold.PLP.Chemscore.Hbond>  (75) 
2.1326

>  <Gold.PLP.Chemscore.Internal.Correction>  (75) 
0.0021

>  <Gold.PLP.Chemscore.Metal>  (75) 
0.0000

>  <Gold.PLP.Fitness>  (75) 
46.9985

>  <Gold.PLP.PLP>  (75) 
-38.4353

>  <Gold.PLP.ligand.clash>  (75) 
0.0000

>  <Gold.PLP.ligand.torsion>  (75) 
0.6126

>  <Gold.PLP.part.buried>  (75) 
-2.6856

>  <Gold.PLP.part.hbond>  (75) 
-5.6655

>  <Gold.PLP.part.metal>  (75) 
0.0000

>  <Gold.PLP.part.nonpolar>  (75) 
-32.9392

>  <Gold.PLP.part.repulsive>  (75) 
2.4797

>  <Gold.Protein.RotatedAtoms>  (75) 


>  <Gold.Protein.RotatedTorsions>  (75) 


>  <Gold.Protein.RotatedWaterAtoms>  (75) 


>  <Gold.Version>  (75) 
5.3.0

>  <PLP.Chemscore.CHOScore>  (75) 


>  <PLP.Chemscore.Hbond>  (75) 


>  <PLP.Chemscore.Internal.Correction>  (75) 


>  <PLP.Chemscore.Metal>  (75) 


>  <PLP.Fitness>  (75) 


>  <PLP.PLP>  (75) 


>  <PLP.ligand.clash>  (75) 


>  <PLP.ligand.torsion>  (75) 


>  <PLP.part.buried>  (75) 


>  <PLP.part.hbond>  (75) 


>  <PLP.part.metal>  (75) 


>  <PLP.part.nonpolar>  (75) 


>  <PLP.part.repulsive>  (75) 


>  <Version>  (75) 


$$$$
3075|Compound_1904|Compounds_3D_F|sdf|552|dock1|1
     RDKit          3D

 19 20  0  0  0  0  0  0  0  0999 V2000
   -9.0477  -16.7662   11.8867 N   0  0  0  0  0  0  0  0  0  0  0  0
   -9.4173  -18.0272   11.5861 C   0  0  0  0  0  0  0  0  0  0  0  0
   -8.6011  -18.8095   11.1436 O   0  0  0  0  0  0  0  0  0  0  0  0
  -10.8184  -18.4574   11.7958 C   0  0  0  0  0  0  0  0  0  0  0  0
  -11.7072  -17.6125   12.3059 N   0  0  0  0  0  0  0  0  0  0  0  0
  -12.9307  -17.9487   12.5023 N   0  0  0  0  0  0  0  0  0  0  0  0
  -13.3882  -19.1531   12.2100 C   0  0  0  0  0  0  0  0  0  0  0  0
  -12.5393  -20.1073   11.6728 C   0  0  0  0  0  0  0  0  0  0  0  0
  -11.2149  -19.7525   11.4515 C   0  0  0  0  0  0  0  0  0  0  0  0
   -7.7465  -16.3647   11.6873 C   0  0  0  0  0  0  0  0  0  0  0  0
   -7.2740  -15.0531   11.5830 C   0  0  0  0  0  0  0  0  0  0  0  0
   -5.8727  -15.2273   11.3837 C   0  0  0  0  0  0  0  0  0  0  0  0
   -5.6594  -16.5082   11.3874 N   0  0  0  0  0  0  0  0  0  0  0  0
   -6.6681  -17.1494   11.5577 O   0  0  0  0  0  0  0  0  0  0  0  0
   -8.0354  -13.8021   11.6589 C   0  0  0  0  0  0  0  0  0  0  0  0
   -9.2495  -13.8317   11.7266 O   0  0  0  0  0  0  0  0  0  0  0  0
   -7.3895  -12.6185   11.6550 O   0  0  0  0  0  0  0  0  0  0  0  0
   -8.2079  -11.4206   11.6022 C   0  0  0  0  0  0  0  0  0  0  0  0
   -7.3385  -10.1946   11.8925 C   0  0  0  0  0  0  0  0  0  0  0  0
  1  2  1  0
  1 10  1  0
  2  3  2  0
  2  4  1  0
  4  5  2  0
  4  9  1  0
  5  6  1  0
  6  7  2  0
  7  8  1  0
  8  9  2  0
 10 11  2  0
 10 14  1  0
 11 12  1  0
 11 15  1  0
 12 13  2  0
 13 14  1  0
 15 16  2  0
 15 17  1  0
 17 18  1  0
 18 19  1  0
M  END
>  <Gold.Gold.Protein.RotatedWaterAtoms>  (76) 


>  <Gold.Id.Protein>  (76) 


>  <Gold.PLP.Chemscore.CHOScore>  (76) 
2.0000

>  <Gold.PLP.Chemscore.Hbond>  (76) 
1.4420

>  <Gold.PLP.Chemscore.Internal.Correction>  (76) 
0.0257

>  <Gold.PLP.Chemscore.Metal>  (76) 
0.0000

>  <Gold.PLP.Fitness>  (76) 
50.8769

>  <Gold.PLP.PLP>  (76) 
-40.8579

>  <Gold.PLP.ligand.clash>  (76) 
0.0000

>  <Gold.PLP.ligand.torsion>  (76) 
0.1664

>  <Gold.PLP.part.buried>  (76) 
-7.6727

>  <Gold.PLP.part.hbond>  (76) 
-3.6922

>  <Gold.PLP.part.metal>  (76) 
0.0000

>  <Gold.PLP.part.nonpolar>  (76) 
-29.6355

>  <Gold.PLP.part.repulsive>  (76) 
0.5829

>  <Gold.Protein.RotatedAtoms>  (76) 


>  <Gold.Protein.RotatedTorsions>  (76) 


>  <Gold.Protein.RotatedWaterAtoms>  (76) 


>  <Gold.Version>  (76) 
5.3.0

>  <PLP.Chemscore.CHOScore>  (76) 


>  <PLP.Chemscore.Hbond>  (76) 


>  <PLP.Chemscore.Internal.Correction>  (76) 


>  <PLP.Chemscore.Metal>  (76) 


>  <PLP.Fitness>  (76) 


>  <PLP.PLP>  (76) 


>  <PLP.ligand.clash>  (76) 


>  <PLP.ligand.torsion>  (76) 


>  <PLP.part.buried>  (76) 


>  <PLP.part.hbond>  (76) 


>  <PLP.part.metal>  (76) 


>  <PLP.part.nonpolar>  (76) 


>  <PLP.part.repulsive>  (76) 


>  <Version>  (76) 


$$$$
3076|Compound_1904|Compounds_3D_F|sdf|552|dock2|1
     RDKit          3D

 19 20  0  0  0  0  0  0  0  0999 V2000
   -8.6993  -16.3699   12.0914 N   0  0  0  0  0  0  0  0  0  0  0  0
   -9.0667  -17.5844   11.6365 C   0  0  0  0  0  0  0  0  0  0  0  0
   -8.2448  -18.3124   11.1182 O   0  0  0  0  0  0  0  0  0  0  0  0
  -10.4724  -18.0301   11.7693 C   0  0  0  0  0  0  0  0  0  0  0  0
  -11.3591  -17.2651   12.3959 N   0  0  0  0  0  0  0  0  0  0  0  0
  -12.5864  -17.6172   12.5309 N   0  0  0  0  0  0  0  0  0  0  0  0
  -13.0502  -18.7595   12.0562 C   0  0  0  0  0  0  0  0  0  0  0  0
  -12.2039  -19.6281   11.3860 C   0  0  0  0  0  0  0  0  0  0  0  0
  -10.8753  -19.2547   11.2298 C   0  0  0  0  0  0  0  0  0  0  0  0
   -7.3937  -15.9536   11.9637 C   0  0  0  0  0  0  0  0  0  0  0  0
   -6.9169  -14.6405   12.0176 C   0  0  0  0  0  0  0  0  0  0  0  0
   -5.5124  -14.7965   11.8268 C   0  0  0  0  0  0  0  0  0  0  0  0
   -5.3014  -16.0705   11.6895 N   0  0  0  0  0  0  0  0  0  0  0  0
   -6.3144  -16.7228   11.7668 O   0  0  0  0  0  0  0  0  0  0  0  0
   -7.6775  -13.4031   12.2200 C   0  0  0  0  0  0  0  0  0  0  0  0
   -8.8478  -13.4546   12.5474 O   0  0  0  0  0  0  0  0  0  0  0  0
   -7.0791  -12.2077   12.0443 O   0  0  0  0  0  0  0  0  0  0  0  0
   -7.9177  -11.1092   11.5996 C   0  0  0  0  0  0  0  0  0  0  0  0
   -7.2218   -9.7799   11.9029 C   0  0  0  0  0  0  0  0  0  0  0  0
  1  2  1  0
  1 10  1  0
  2  3  2  0
  2  4  1  0
  4  5  2  0
  4  9  1  0
  5  6  1  0
  6  7  2  0
  7  8  1  0
  8  9  2  0
 10 11  2  0
 10 14  1  0
 11 12  1  0
 11 15  1  0
 12 13  2  0
 13 14  1  0
 15 16  2  0
 15 17  1  0
 17 18  1  0
 18 19  1  0
M  END
>  <Gold.Gold.Protein.RotatedWaterAtoms>  (77) 


>  <Gold.Id.Protein>  (77) 


>  <Gold.PLP.Chemscore.CHOScore>  (77) 
1.6793

>  <Gold.PLP.Chemscore.Hbond>  (77) 
1.0000

>  <Gold.PLP.Chemscore.Internal.Correction>  (77) 
0.0257

>  <Gold.PLP.Chemscore.Metal>  (77) 
0.0000

>  <Gold.PLP.Fitness>  (77) 
49.4463

>  <Gold.PLP.PLP>  (77) 
-42.5740

>  <Gold.PLP.ligand.clash>  (77) 
0.0000

>  <Gold.PLP.ligand.torsion>  (77) 
0.5957

>  <Gold.PLP.part.buried>  (77) 
-7.0495

>  <Gold.PLP.part.hbond>  (77) 
-4.0000

>  <Gold.PLP.part.metal>  (77) 
0.0000

>  <Gold.PLP.part.nonpolar>  (77) 
-31.8807

>  <Gold.PLP.part.repulsive>  (77) 
0.6555

>  <Gold.Protein.RotatedAtoms>  (77) 


>  <Gold.Protein.RotatedTorsions>  (77) 


>  <Gold.Protein.RotatedWaterAtoms>  (77) 


>  <Gold.Version>  (77) 
5.3.0

>  <PLP.Chemscore.CHOScore>  (77) 


>  <PLP.Chemscore.Hbond>  (77) 


>  <PLP.Chemscore.Internal.Correction>  (77) 


>  <PLP.Chemscore.Metal>  (77) 


>  <PLP.Fitness>  (77) 


>  <PLP.PLP>  (77) 


>  <PLP.ligand.clash>  (77) 


>  <PLP.ligand.torsion>  (77) 


>  <PLP.part.buried>  (77) 


>  <PLP.part.hbond>  (77) 


>  <PLP.part.metal>  (77) 


>  <PLP.part.nonpolar>  (77) 


>  <PLP.part.repulsive>  (77) 


>  <Version>  (77) 


$$$$
3077|Compound_1904|Compounds_3D_F|sdf|552|dock3|1
     RDKit          3D

 19 20  0  0  0  0  0  0  0  0999 V2000
   -9.3970  -16.4100   11.6560 N   0  0  0  0  0  0  0  0  0  0  0  0
   -9.6889  -17.6995   11.3927 C   0  0  0  0  0  0  0  0  0  0  0  0
   -8.7951  -18.4911   11.1723 O   0  0  0  0  0  0  0  0  0  0  0  0
  -11.0993  -18.1497   11.3728 C   0  0  0  0  0  0  0  0  0  0  0  0
  -11.8890  -17.9179   12.4152 N   0  0  0  0  0  0  0  0  0  0  0  0
  -13.1169  -18.2926   12.4350 N   0  0  0  0  0  0  0  0  0  0  0  0
  -13.6774  -18.9306   11.4230 C   0  0  0  0  0  0  0  0  0  0  0  0
  -12.9370  -19.2198   10.2882 C   0  0  0  0  0  0  0  0  0  0  0  0
  -11.6090  -18.8144   10.2542 C   0  0  0  0  0  0  0  0  0  0  0  0
   -8.0864  -15.9905   11.6698 C   0  0  0  0  0  0  0  0  0  0  0  0
   -7.6215  -14.6720   11.6562 C   0  0  0  0  0  0  0  0  0  0  0  0
   -6.2041  -14.8268   11.6797 C   0  0  0  0  0  0  0  0  0  0  0  0
   -5.9763  -16.1050   11.7030 N   0  0  0  0  0  0  0  0  0  0  0  0
   -6.9903  -16.7604   11.7042 O   0  0  0  0  0  0  0  0  0  0  0  0
   -8.4027  -13.4313   11.6240 C   0  0  0  0  0  0  0  0  0  0  0  0
   -9.6174  -13.4778   11.5834 O   0  0  0  0  0  0  0  0  0  0  0  0
   -7.7743  -12.2385   11.6410 O   0  0  0  0  0  0  0  0  0  0  0  0
   -8.6099  -11.0521   11.5982 C   0  0  0  0  0  0  0  0  0  0  0  0
   -7.7327   -9.8044   11.7289 C   0  0  0  0  0  0  0  0  0  0  0  0
  1  2  1  0
  1 10  1  0
  2  3  2  0
  2  4  1  0
  4  5  2  0
  4  9  1  0
  5  6  1  0
  6  7  2  0
  7  8  1  0
  8  9  2  0
 10 11  2  0
 10 14  1  0
 11 12  1  0
 11 15  1  0
 12 13  2  0
 13 14  1  0
 15 16  2  0
 15 17  1  0
 17 18  1  0
 18 19  1  0
M  END
>  <Gold.Gold.Protein.RotatedWaterAtoms>  (78) 


>  <Gold.Id.Protein>  (78) 


>  <Gold.PLP.Chemscore.CHOScore>  (78) 
1.0000

>  <Gold.PLP.Chemscore.Hbond>  (78) 
1.8520

>  <Gold.PLP.Chemscore.Internal.Correction>  (78) 
0.0257

>  <Gold.PLP.Chemscore.Metal>  (78) 
0.0000

>  <Gold.PLP.Fitness>  (78) 
49.4463

>  <Gold.PLP.PLP>  (78) 
-42.9234

>  <Gold.PLP.ligand.clash>  (78) 
0.0000

>  <Gold.PLP.ligand.torsion>  (78) 
1.0294

>  <Gold.PLP.part.buried>  (78) 
-8.8396

>  <Gold.PLP.part.hbond>  (78) 
-3.8913

>  <Gold.PLP.part.metal>  (78) 
0.0000

>  <Gold.PLP.part.nonpolar>  (78) 
-30.8974

>  <Gold.PLP.part.repulsive>  (78) 
0.6044

>  <Gold.Protein.RotatedAtoms>  (78) 


>  <Gold.Protein.RotatedTorsions>  (78) 


>  <Gold.Protein.RotatedWaterAtoms>  (78) 


>  <Gold.Version>  (78) 
5.3.0

>  <PLP.Chemscore.CHOScore>  (78) 


>  <PLP.Chemscore.Hbond>  (78) 


>  <PLP.Chemscore.Internal.Correction>  (78) 


>  <PLP.Chemscore.Metal>  (78) 


>  <PLP.Fitness>  (78) 


>  <PLP.PLP>  (78) 


>  <PLP.ligand.clash>  (78) 


>  <PLP.ligand.torsion>  (78) 


>  <PLP.part.buried>  (78) 


>  <PLP.part.hbond>  (78) 


>  <PLP.part.metal>  (78) 


>  <PLP.part.nonpolar>  (78) 


>  <PLP.part.repulsive>  (78) 


>  <Version>  (78) 


$$$$
3078|Compound_1905|Compounds_3D_F|sdf|553|dock1|1
     RDKit          3D

 34 38  0  0  0  0  0  0  0  0999 V2000
  -10.6004  -17.7700   10.1404 N   0  0  0  0  0  0  0  0  0  0  0  0
  -11.4051  -18.3835   11.0312 C   0  0  0  0  0  0  0  0  0  0  0  0
  -11.0732  -18.4577   12.1979 O   0  0  0  0  0  0  0  0  0  0  0  0
  -12.6924  -18.9653   10.5884 C   0  0  0  0  0  0  0  0  0  0  0  0
  -13.0028  -18.9955    9.2972 N   0  0  0  0  0  0  0  0  0  0  0  0
  -14.1083  -19.4924    8.8749 N   0  0  0  0  0  0  0  0  0  0  0  0
  -15.0105  -20.0065    9.6927 C   0  0  0  0  0  0  0  0  0  0  0  0
  -14.7794  -20.0231   11.0588 C   0  0  0  0  0  0  0  0  0  0  0  0
  -13.5847  -19.4921   11.5261 C   0  0  0  0  0  0  0  0  0  0  0  0
   -9.3938  -17.2301   10.5542 C   0  0  0  0  0  0  0  0  0  0  0  0
   -9.1850  -15.9830   10.9063 N   0  0  0  0  0  0  0  0  0  0  0  0
   -7.8993  -15.8177   11.2480 C   0  0  0  0  0  0  0  0  0  0  0  0
   -7.2694  -16.9642   11.1185 N   0  0  0  0  0  0  0  0  0  0  0  0
   -8.2149  -17.9023   10.6740 N   0  0  0  0  0  0  0  0  0  0  0  0
   -7.9911  -19.2470   10.4029 C   0  0  0  0  0  0  0  0  0  0  0  0
   -8.9851  -20.1221   10.4324 N   0  0  0  0  0  0  0  0  0  0  0  0
   -8.7862  -21.4053   10.1764 C   0  0  0  0  0  0  0  0  0  0  0  0
   -7.6077  -21.8981    9.8783 N   0  0  0  0  0  0  0  0  0  0  0  0
   -6.5311  -21.0999    9.8210 C   0  0  0  0  0  0  0  0  0  0  0  0
   -6.6968  -19.7157   10.0828 C   0  0  0  0  0  0  0  0  0  0  0  0
   -5.5892  -18.8602   10.0290 C   0  0  0  0  0  0  0  0  0  0  0  0
   -4.3590  -19.3694    9.7237 C   0  0  0  0  0  0  0  0  0  0  0  0
   -3.2822  -18.5412    9.6716 O   0  0  0  0  0  0  0  0  0  0  0  0
   -3.3033  -17.3944   10.5248 C   0  0  0  0  0  0  0  0  0  0  0  0
   -4.1942  -20.7378    9.4652 C   0  0  0  0  0  0  0  0  0  0  0  0
   -2.9595  -21.2193    9.1655 O   0  0  0  0  0  0  0  0  0  0  0  0
   -2.6901  -22.5790    9.5154 C   0  0  0  0  0  0  0  0  0  0  0  0
   -5.2590  -21.5937    9.5056 C   0  0  0  0  0  0  0  0  0  0  0  0
   -7.2856  -14.5447   11.7004 C   0  0  0  0  0  0  0  0  0  0  0  0
   -6.0791  -14.5559   12.2528 N   0  0  0  0  0  0  0  0  0  0  0  0
   -5.4995  -13.4480   12.6677 C   0  0  0  0  0  0  0  0  0  0  0  0
   -6.1326  -12.2257   12.5411 C   0  0  0  0  0  0  0  0  0  0  0  0
   -7.3956  -12.1686   11.9694 C   0  0  0  0  0  0  0  0  0  0  0  0
   -7.9790  -13.3475   11.5376 C   0  0  0  0  0  0  0  0  0  0  0  0
  1  2  1  0
  1 10  1  0
  2  3  2  0
  2  4  1  0
  4  5  2  0
  4  9  1  0
  5  6  1  0
  6  7  2  0
  7  8  1  0
  8  9  2  0
 10 11  2  0
 10 14  1  0
 11 12  1  0
 12 13  2  0
 12 29  1  0
 13 14  1  0
 14 15  1  0
 15 16  2  0
 15 20  1  0
 16 17  1  0
 17 18  2  0
 18 19  1  0
 19 20  2  0
 19 28  1  0
 20 21  1  0
 21 22  2  0
 22 23  1  0
 22 25  1  0
 23 24  1  0
 25 26  1  0
 25 28  2  0
 26 27  1  0
 29 30  2  0
 29 34  1  0
 30 31  1  0
 31 32  2  0
 32 33  1  0
 33 34  2  0
M  END
>  <Gold.Gold.Protein.RotatedWaterAtoms>  (79) 


>  <Gold.Id.Protein>  (79) 


>  <Gold.PLP.Chemscore.CHOScore>  (79) 
2.0000

>  <Gold.PLP.Chemscore.Hbond>  (79) 
0.8520

>  <Gold.PLP.Chemscore.Internal.Correction>  (79) 
2.0479

>  <Gold.PLP.Chemscore.Metal>  (79) 
0.0000

>  <Gold.PLP.Fitness>  (79) 
63.9864

>  <Gold.PLP.PLP>  (79) 
-57.0299

>  <Gold.PLP.ligand.clash>  (79) 
0.0000

>  <Gold.PLP.ligand.torsion>  (79) 
1.8237

>  <Gold.PLP.part.buried>  (79) 
-7.7912

>  <Gold.PLP.part.hbond>  (79) 
-2.9025

>  <Gold.PLP.part.metal>  (79) 
0.0000

>  <Gold.PLP.part.nonpolar>  (79) 
-46.5101

>  <Gold.PLP.part.repulsive>  (79) 
0.4889

>  <Gold.Protein.RotatedAtoms>  (79) 


>  <Gold.Protein.RotatedTorsions>  (79) 


>  <Gold.Protein.RotatedWaterAtoms>  (79) 


>  <Gold.Version>  (79) 
5.3.0

>  <PLP.Chemscore.CHOScore>  (79) 


>  <PLP.Chemscore.Hbond>  (79) 


>  <PLP.Chemscore.Internal.Correction>  (79) 


>  <PLP.Chemscore.Metal>  (79) 


>  <PLP.Fitness>  (79) 


>  <PLP.PLP>  (79) 


>  <PLP.ligand.clash>  (79) 


>  <PLP.ligand.torsion>  (79) 


>  <PLP.part.buried>  (79) 


>  <PLP.part.hbond>  (79) 


>  <PLP.part.metal>  (79) 


>  <PLP.part.nonpolar>  (79) 


>  <PLP.part.repulsive>  (79) 


>  <Version>  (79) 


$$$$
3079|Compound_1905|Compounds_3D_F|sdf|553|dock2|1
     RDKit          3D

 34 38  0  0  0  0  0  0  0  0999 V2000
  -10.5441  -17.8392   10.1231 N   0  0  0  0  0  0  0  0  0  0  0  0
  -11.4045  -18.3600   11.0208 C   0  0  0  0  0  0  0  0  0  0  0  0
  -11.1285  -18.3462   12.2042 O   0  0  0  0  0  0  0  0  0  0  0  0
  -12.6850  -18.9470   10.5653 C   0  0  0  0  0  0  0  0  0  0  0  0
  -13.3835  -19.7356   11.3744 N   0  0  0  0  0  0  0  0  0  0  0  0
  -14.4979  -20.2620   11.0158 N   0  0  0  0  0  0  0  0  0  0  0  0
  -15.0252  -20.0560    9.8214 C   0  0  0  0  0  0  0  0  0  0  0  0
  -14.3730  -19.2469    8.9050 C   0  0  0  0  0  0  0  0  0  0  0  0
  -13.1689  -18.6689    9.2841 C   0  0  0  0  0  0  0  0  0  0  0  0
   -9.3440  -17.2945   10.5493 C   0  0  0  0  0  0  0  0  0  0  0  0
   -9.1510  -16.0543   10.9333 N   0  0  0  0  0  0  0  0  0  0  0  0
   -7.8671  -15.8810   11.2777 C   0  0  0  0  0  0  0  0  0  0  0  0
   -7.2225  -17.0154   11.1178 N   0  0  0  0  0  0  0  0  0  0  0  0
   -8.1563  -17.9541   10.6503 N   0  0  0  0  0  0  0  0  0  0  0  0
   -7.9153  -19.2882   10.3442 C   0  0  0  0  0  0  0  0  0  0  0  0
   -8.9032  -20.1705   10.3208 N   0  0  0  0  0  0  0  0  0  0  0  0
   -8.6880  -21.4439   10.0310 C   0  0  0  0  0  0  0  0  0  0  0  0
   -7.4985  -21.9193    9.7491 N   0  0  0  0  0  0  0  0  0  0  0  0
   -6.4268  -21.1125    9.7445 C   0  0  0  0  0  0  0  0  0  0  0  0
   -6.6097  -19.7382   10.0441 C   0  0  0  0  0  0  0  0  0  0  0  0
   -5.5075  -18.8740   10.0456 C   0  0  0  0  0  0  0  0  0  0  0  0
   -4.2659  -19.3653    9.7573 C   0  0  0  0  0  0  0  0  0  0  0  0
   -3.1945  -18.5286    9.7589 O   0  0  0  0  0  0  0  0  0  0  0  0
   -3.2465  -17.4087   10.6459 C   0  0  0  0  0  0  0  0  0  0  0  0
   -4.0842  -20.7239    9.4616 C   0  0  0  0  0  0  0  0  0  0  0  0
   -2.8385  -21.1876    9.1799 O   0  0  0  0  0  0  0  0  0  0  0  0
   -2.5593  -22.5477    9.5205 C   0  0  0  0  0  0  0  0  0  0  0  0
   -5.1432  -21.5878    9.4478 C   0  0  0  0  0  0  0  0  0  0  0  0
   -7.2694  -14.6123   11.7622 C   0  0  0  0  0  0  0  0  0  0  0  0
   -6.0629  -14.6223   12.3147 N   0  0  0  0  0  0  0  0  0  0  0  0
   -5.4972  -13.5180   12.7575 C   0  0  0  0  0  0  0  0  0  0  0  0
   -6.1455  -12.3008   12.6614 C   0  0  0  0  0  0  0  0  0  0  0  0
   -7.4090  -12.2452   12.0907 C   0  0  0  0  0  0  0  0  0  0  0  0
   -7.9776  -13.4200   11.6291 C   0  0  0  0  0  0  0  0  0  0  0  0
  1  2  1  0
  1 10  1  0
  2  3  2  0
  2  4  1  0
  4  5  2  0
  4  9  1  0
  5  6  1  0
  6  7  2  0
  7  8  1  0
  8  9  2  0
 10 11  2  0
 10 14  1  0
 11 12  1  0
 12 13  2  0
 12 29  1  0
 13 14  1  0
 14 15  1  0
 15 16  2  0
 15 20  1  0
 16 17  1  0
 17 18  2  0
 18 19  1  0
 19 20  2  0
 19 28  1  0
 20 21  1  0
 21 22  2  0
 22 23  1  0
 22 25  1  0
 23 24  1  0
 25 26  1  0
 25 28  2  0
 26 27  1  0
 29 30  2  0
 29 34  1  0
 30 31  1  0
 31 32  2  0
 32 33  1  0
 33 34  2  0
M  END
>  <Gold.Gold.Protein.RotatedWaterAtoms>  (80) 


>  <Gold.Id.Protein>  (80) 


>  <Gold.PLP.Chemscore.CHOScore>  (80) 
1.7669

>  <Gold.PLP.Chemscore.Hbond>  (80) 
0.9425

>  <Gold.PLP.Chemscore.Internal.Correction>  (80) 
2.0303

>  <Gold.PLP.Chemscore.Metal>  (80) 
0.0000

>  <Gold.PLP.Fitness>  (80) 
67.1267

>  <Gold.PLP.PLP>  (80) 
-60.8921

>  <Gold.PLP.ligand.clash>  (80) 
0.1151

>  <Gold.PLP.ligand.torsion>  (80) 
1.9044

>  <Gold.PLP.part.buried>  (80) 
-9.5658

>  <Gold.PLP.part.hbond>  (80) 
-2.9956

>  <Gold.PLP.part.metal>  (80) 
0.0000

>  <Gold.PLP.part.nonpolar>  (80) 
-47.9722

>  <Gold.PLP.part.repulsive>  (80) 
0.6455

>  <Gold.Protein.RotatedAtoms>  (80) 


>  <Gold.Protein.RotatedTorsions>  (80) 


>  <Gold.Protein.RotatedWaterAtoms>  (80) 


>  <Gold.Version>  (80) 
5.3.0

>  <PLP.Chemscore.CHOScore>  (80) 


>  <PLP.Chemscore.Hbond>  (80) 


>  <PLP.Chemscore.Internal.Correction>  (80) 


>  <PLP.Chemscore.Metal>  (80) 


>  <PLP.Fitness>  (80) 


>  <PLP.PLP>  (80) 


>  <PLP.ligand.clash>  (80) 


>  <PLP.ligand.torsion>  (80) 


>  <PLP.part.buried>  (80) 


>  <PLP.part.hbond>  (80) 


>  <PLP.part.metal>  (80) 


>  <PLP.part.nonpolar>  (80) 


>  <PLP.part.repulsive>  (80) 


>  <Version>  (80) 


$$$$
3080|Compound_1905|Compounds_3D_F|sdf|553|dock3|1
     RDKit          3D

 34 38  0  0  0  0  0  0  0  0999 V2000
  -10.6329  -17.7870   10.1652 N   0  0  0  0  0  0  0  0  0  0  0  0
  -11.4311  -18.4427   11.0315 C   0  0  0  0  0  0  0  0  0  0  0  0
  -11.0889  -18.5757   12.1899 O   0  0  0  0  0  0  0  0  0  0  0  0
  -12.7237  -18.9990   10.5719 C   0  0  0  0  0  0  0  0  0  0  0  0
  -13.4246  -19.8025   11.3643 N   0  0  0  0  0  0  0  0  0  0  0  0
  -14.5493  -20.3033   11.0017 N   0  0  0  0  0  0  0  0  0  0  0  0
  -15.0858  -20.0547    9.8196 C   0  0  0  0  0  0  0  0  0  0  0  0
  -14.4321  -19.2269    8.9211 C   0  0  0  0  0  0  0  0  0  0  0  0
  -13.2167  -18.6762    9.3048 C   0  0  0  0  0  0  0  0  0  0  0  0
   -9.4213  -17.2708   10.5944 C   0  0  0  0  0  0  0  0  0  0  0  0
   -9.1891  -16.0247   10.9354 N   0  0  0  0  0  0  0  0  0  0  0  0
   -7.9062  -15.8858   11.2985 C   0  0  0  0  0  0  0  0  0  0  0  0
   -7.3017  -17.0483   11.1942 N   0  0  0  0  0  0  0  0  0  0  0  0
   -8.2613  -17.9692   10.7437 N   0  0  0  0  0  0  0  0  0  0  0  0
   -8.0649  -19.3221   10.4928 C   0  0  0  0  0  0  0  0  0  0  0  0
   -9.0628  -20.1864   10.6011 N   0  0  0  0  0  0  0  0  0  0  0  0
   -8.8899  -21.4773   10.3652 C   0  0  0  0  0  0  0  0  0  0  0  0
   -7.7350  -21.9885   10.0114 N   0  0  0  0  0  0  0  0  0  0  0  0
   -6.6568  -21.2024    9.8724 C   0  0  0  0  0  0  0  0  0  0  0  0
   -6.7954  -19.8109   10.1097 C   0  0  0  0  0  0  0  0  0  0  0  0
   -5.6856  -18.9678    9.9710 C   0  0  0  0  0  0  0  0  0  0  0  0
   -4.4796  -19.4961    9.6074 C   0  0  0  0  0  0  0  0  0  0  0  0
   -3.4008  -18.6800    9.4729 O   0  0  0  0  0  0  0  0  0  0  0  0
   -3.3626  -17.5130   10.2978 C   0  0  0  0  0  0  0  0  0  0  0  0
   -4.3416  -20.8718    9.3731 C   0  0  0  0  0  0  0  0  0  0  0  0
   -3.1305  -21.3723    9.0141 O   0  0  0  0  0  0  0  0  0  0  0  0
   -2.8417  -22.7168    9.4048 C   0  0  0  0  0  0  0  0  0  0  0  0
   -5.4094  -21.7160    9.4959 C   0  0  0  0  0  0  0  0  0  0  0  0
   -7.2704  -14.6222   11.7469 C   0  0  0  0  0  0  0  0  0  0  0  0
   -6.0951  -14.6593   12.3619 N   0  0  0  0  0  0  0  0  0  0  0  0
   -5.4975  -13.5606   12.7757 C   0  0  0  0  0  0  0  0  0  0  0  0
   -6.0780  -12.3211   12.5819 C   0  0  0  0  0  0  0  0  0  0  0  0
   -7.3069  -12.2367   11.9432 C   0  0  0  0  0  0  0  0  0  0  0  0
   -7.9101  -13.4067   11.5144 C   0  0  0  0  0  0  0  0  0  0  0  0
  1  2  1  0
  1 10  1  0
  2  3  2  0
  2  4  1  0
  4  5  2  0
  4  9  1  0
  5  6  1  0
  6  7  2  0
  7  8  1  0
  8  9  2  0
 10 11  2  0
 10 14  1  0
 11 12  1  0
 12 13  2  0
 12 29  1  0
 13 14  1  0
 14 15  1  0
 15 16  2  0
 15 20  1  0
 16 17  1  0
 17 18  2  0
 18 19  1  0
 19 20  2  0
 19 28  1  0
 20 21  1  0
 21 22  2  0
 22 23  1  0
 22 25  1  0
 23 24  1  0
 25 26  1  0
 25 28  2  0
 26 27  1  0
 29 30  2  0
 29 34  1  0
 30 31  1  0
 31 32  2  0
 32 33  1  0
 33 34  2  0
M  END
>  <Gold.Gold.Protein.RotatedWaterAtoms>  (81) 


>  <Gold.Id.Protein>  (81) 


>  <Gold.PLP.Chemscore.CHOScore>  (81) 
1.9067

>  <Gold.PLP.Chemscore.Hbond>  (81) 
0.7475

>  <Gold.PLP.Chemscore.Internal.Correction>  (81) 
2.0303

>  <Gold.PLP.Chemscore.Metal>  (81) 
0.0000

>  <Gold.PLP.Fitness>  (81) 
67.3192

>  <Gold.PLP.PLP>  (81) 
-61.2473

>  <Gold.PLP.ligand.clash>  (81) 
0.0000

>  <Gold.PLP.ligand.torsion>  (81) 
1.9604

>  <Gold.PLP.part.buried>  (81) 
-9.7276

>  <Gold.PLP.part.hbond>  (81) 
-2.8037

>  <Gold.PLP.part.metal>  (81) 
0.0000

>  <Gold.PLP.part.nonpolar>  (81) 
-47.5785

>  <Gold.PLP.part.repulsive>  (81) 
0.6817

>  <Gold.Protein.RotatedAtoms>  (81) 


>  <Gold.Protein.RotatedTorsions>  (81) 


>  <Gold.Protein.RotatedWaterAtoms>  (81) 


>  <Gold.Version>  (81) 
5.3.0

>  <PLP.Chemscore.CHOScore>  (81) 


>  <PLP.Chemscore.Hbond>  (81) 


>  <PLP.Chemscore.Internal.Correction>  (81) 


>  <PLP.Chemscore.Metal>  (81) 


>  <PLP.Fitness>  (81) 


>  <PLP.PLP>  (81) 


>  <PLP.ligand.clash>  (81) 


>  <PLP.ligand.torsion>  (81) 


>  <PLP.part.buried>  (81) 


>  <PLP.part.hbond>  (81) 


>  <PLP.part.metal>  (81) 


>  <PLP.part.nonpolar>  (81) 


>  <PLP.part.repulsive>  (81) 


>  <Version>  (81) 


$$$$
3081|Compound_1912|Compounds_3D_F|sdf|554|dock1|1
     RDKit          3D

 25 26  0  0  0  0  0  0  0  0999 V2000
   -8.2080  -17.6525   11.1716 N   0  0  0  0  0  0  0  0  0  0  0  0
   -9.0462  -16.6876   11.6002 C   0  0  0  0  0  0  0  0  0  0  0  0
  -10.2063  -16.9550   11.8432 O   0  0  0  0  0  0  0  0  0  0  0  0
   -8.5526  -15.3027   11.7748 C   0  0  0  0  0  0  0  0  0  0  0  0
   -9.4070  -14.3125   12.0064 N   0  0  0  0  0  0  0  0  0  0  0  0
   -9.0180  -13.1000   12.1632 N   0  0  0  0  0  0  0  0  0  0  0  0
   -7.7444  -12.7539   12.1058 C   0  0  0  0  0  0  0  0  0  0  0  0
   -6.7736  -13.7137   11.8690 C   0  0  0  0  0  0  0  0  0  0  0  0
   -7.1837  -15.0304   11.7039 C   0  0  0  0  0  0  0  0  0  0  0  0
   -8.6740  -18.9569   11.0021 C   0  0  0  0  0  0  0  0  0  0  0  0
   -9.6633  -19.4011   11.7600 N   0  0  0  0  0  0  0  0  0  0  0  0
  -10.1380  -20.6305   11.6342 C   0  0  0  0  0  0  0  0  0  0  0  0
  -11.1837  -21.0545   12.4571 N   0  0  0  0  0  0  0  0  0  0  0  0
  -12.0832  -20.1631   12.9181 C   0  0  0  0  0  0  0  0  0  0  0  0
  -11.9848  -18.9924   12.6170 O   0  0  0  0  0  0  0  0  0  0  0  0
  -13.2116  -20.6207   13.8054 C   0  0  0  0  0  0  0  0  0  0  0  0
   -9.6049  -21.5071   10.6892 C   0  0  0  0  0  0  0  0  0  0  0  0
  -10.2445  -23.1414   10.5290 S   0  0  0  0  0  0  0  0  0  0  0  0
   -8.7660  -24.0994   10.9461 C   0  0  0  0  0  0  0  0  0  0  0  0
   -7.8379  -24.7004   11.2075 N   0  0  0  0  0  0  0  0  0  0  0  0
   -8.5647  -21.0751    9.8742 C   0  0  0  0  0  0  0  0  0  0  0  0
   -8.0957  -19.7752   10.0311 C   0  0  0  0  0  0  0  0  0  0  0  0
   -6.7803  -19.1745    9.0258 S   0  0  0  0  0  0  0  0  0  0  0  0
   -7.5620  -19.2650    7.3959 C   0  0  0  0  0  0  0  0  0  0  0  0
   -8.0529  -19.3215    6.3730 N   0  0  0  0  0  0  0  0  0  0  0  0
  1  2  1  0
  1 10  1  0
  2  3  2  0
  2  4  1  0
  4  5  2  0
  4  9  1  0
  5  6  1  0
  6  7  2  0
  7  8  1  0
  8  9  2  0
 10 11  2  0
 10 22  1  0
 11 12  1  0
 12 13  1  0
 12 17  2  0
 13 14  1  0
 14 15  2  0
 14 16  1  0
 17 18  1  0
 17 21  1  0
 18 19  1  0
 19 20  3  0
 21 22  2  0
 22 23  1  0
 23 24  1  0
 24 25  3  0
M  END
>  <Gold.Gold.Protein.RotatedWaterAtoms>  (82) 


>  <Gold.Id.Protein>  (82) 


>  <Gold.PLP.Chemscore.CHOScore>  (82) 
0.0000

>  <Gold.PLP.Chemscore.Hbond>  (82) 
2.8800

>  <Gold.PLP.Chemscore.Internal.Correction>  (82) 
0.7828

>  <Gold.PLP.Chemscore.Metal>  (82) 
0.0000

>  <Gold.PLP.Fitness>  (82) 
48.0795

>  <Gold.PLP.PLP>  (82) 
-39.5076

>  <Gold.PLP.ligand.clash>  (82) 
0.0000

>  <Gold.PLP.ligand.torsion>  (82) 
0.4255

>  <Gold.PLP.part.buried>  (82) 
-7.2033

>  <Gold.PLP.part.hbond>  (82) 
-4.0000

>  <Gold.PLP.part.metal>  (82) 
0.0000

>  <Gold.PLP.part.nonpolar>  (82) 
-28.2166

>  <Gold.PLP.part.repulsive>  (82) 
0.3839

>  <Gold.Protein.RotatedAtoms>  (82) 


>  <Gold.Protein.RotatedTorsions>  (82) 


>  <Gold.Protein.RotatedWaterAtoms>  (82) 


>  <Gold.Version>  (82) 
5.3.0

>  <PLP.Chemscore.CHOScore>  (82) 


>  <PLP.Chemscore.Hbond>  (82) 


>  <PLP.Chemscore.Internal.Correction>  (82) 


>  <PLP.Chemscore.Metal>  (82) 


>  <PLP.Fitness>  (82) 


>  <PLP.PLP>  (82) 


>  <PLP.ligand.clash>  (82) 


>  <PLP.ligand.torsion>  (82) 


>  <PLP.part.buried>  (82) 


>  <PLP.part.hbond>  (82) 


>  <PLP.part.metal>  (82) 


>  <PLP.part.nonpolar>  (82) 


>  <PLP.part.repulsive>  (82) 


>  <Version>  (82) 


$$$$
3082|Compound_1912|Compounds_3D_F|sdf|554|dock2|1
     RDKit          3D

 25 26  0  0  0  0  0  0  0  0999 V2000
  -10.5790  -17.7943   10.4145 N   0  0  0  0  0  0  0  0  0  0  0  0
  -11.4117  -18.5111   11.1956 C   0  0  0  0  0  0  0  0  0  0  0  0
  -11.1344  -18.7033   12.3629 O   0  0  0  0  0  0  0  0  0  0  0  0
  -12.6638  -19.0636   10.6306 C   0  0  0  0  0  0  0  0  0  0  0  0
  -13.4415  -19.8476   11.3687 N   0  0  0  0  0  0  0  0  0  0  0  0
  -14.5337  -20.3451   10.9149 N   0  0  0  0  0  0  0  0  0  0  0  0
  -14.9590  -20.1120    9.6861 C   0  0  0  0  0  0  0  0  0  0  0  0
  -14.2192  -19.3059    8.8360 C   0  0  0  0  0  0  0  0  0  0  0  0
  -13.0384  -18.7574    9.3196 C   0  0  0  0  0  0  0  0  0  0  0  0
   -9.3963  -17.2776   10.9452 C   0  0  0  0  0  0  0  0  0  0  0  0
   -9.3715  -16.0349   11.3986 N   0  0  0  0  0  0  0  0  0  0  0  0
   -8.2728  -15.5030   11.9108 C   0  0  0  0  0  0  0  0  0  0  0  0
   -8.2954  -14.1867   12.3770 N   0  0  0  0  0  0  0  0  0  0  0  0
   -7.4461  -13.2748   11.8638 C   0  0  0  0  0  0  0  0  0  0  0  0
   -6.6627  -13.5975   10.9960 O   0  0  0  0  0  0  0  0  0  0  0  0
   -7.4710  -11.8546   12.3664 C   0  0  0  0  0  0  0  0  0  0  0  0
   -7.0929  -16.2427   11.9897 C   0  0  0  0  0  0  0  0  0  0  0  0
   -5.6358  -15.5258   12.6743 S   0  0  0  0  0  0  0  0  0  0  0  0
   -4.4044  -16.7354   12.1279 C   0  0  0  0  0  0  0  0  0  0  0  0
   -3.6319  -17.4945   11.7847 N   0  0  0  0  0  0  0  0  0  0  0  0
   -7.0811  -17.5526   11.5239 C   0  0  0  0  0  0  0  0  0  0  0  0
   -8.2556  -18.0795   10.9974 C   0  0  0  0  0  0  0  0  0  0  0  0
   -8.2987  -19.7331   10.3930 S   0  0  0  0  0  0  0  0  0  0  0  0
   -8.4069  -19.4163    8.6143 C   0  0  0  0  0  0  0  0  0  0  0  0
   -8.4752  -19.2176    7.4979 N   0  0  0  0  0  0  0  0  0  0  0  0
  1  2  1  0
  1 10  1  0
  2  3  2  0
  2  4  1  0
  4  5  2  0
  4  9  1  0
  5  6  1  0
  6  7  2  0
  7  8  1  0
  8  9  2  0
 10 11  2  0
 10 22  1  0
 11 12  1  0
 12 13  1  0
 12 17  2  0
 13 14  1  0
 14 15  2  0
 14 16  1  0
 17 18  1  0
 17 21  1  0
 18 19  1  0
 19 20  3  0
 21 22  2  0
 22 23  1  0
 23 24  1  0
 24 25  3  0
M  END
>  <Gold.Gold.Protein.RotatedWaterAtoms>  (83) 


>  <Gold.Id.Protein>  (83) 


>  <Gold.PLP.Chemscore.CHOScore>  (83) 
0.9523

>  <Gold.PLP.Chemscore.Hbond>  (83) 
2.3600

>  <Gold.PLP.Chemscore.Internal.Correction>  (83) 
0.7828

>  <Gold.PLP.Chemscore.Metal>  (83) 
0.0000

>  <Gold.PLP.Fitness>  (83) 
61.1821

>  <Gold.PLP.PLP>  (83) 
-53.6116

>  <Gold.PLP.ligand.clash>  (83) 
0.0000

>  <Gold.PLP.ligand.torsion>  (83) 
1.5746

>  <Gold.PLP.part.buried>  (83) 
-8.0526

>  <Gold.PLP.part.hbond>  (83) 
-5.1063

>  <Gold.PLP.part.metal>  (83) 
0.0000

>  <Gold.PLP.part.nonpolar>  (83) 
-39.5998

>  <Gold.PLP.part.repulsive>  (83) 
0.6445

>  <Gold.Protein.RotatedAtoms>  (83) 


>  <Gold.Protein.RotatedTorsions>  (83) 


>  <Gold.Protein.RotatedWaterAtoms>  (83) 


>  <Gold.Version>  (83) 
5.3.0

>  <PLP.Chemscore.CHOScore>  (83) 


>  <PLP.Chemscore.Hbond>  (83) 


>  <PLP.Chemscore.Internal.Correction>  (83) 


>  <PLP.Chemscore.Metal>  (83) 


>  <PLP.Fitness>  (83) 


>  <PLP.PLP>  (83) 


>  <PLP.ligand.clash>  (83) 


>  <PLP.ligand.torsion>  (83) 


>  <PLP.part.buried>  (83) 


>  <PLP.part.hbond>  (83) 


>  <PLP.part.metal>  (83) 


>  <PLP.part.nonpolar>  (83) 


>  <PLP.part.repulsive>  (83) 


>  <Version>  (83) 


$$$$
3083|Compound_1912|Compounds_3D_F|sdf|554|dock3|1
     RDKit          3D

 25 26  0  0  0  0  0  0  0  0999 V2000
   -9.5748  -18.6056    9.9251 N   0  0  0  0  0  0  0  0  0  0  0  0
  -10.7672  -18.3849   10.5137 C   0  0  0  0  0  0  0  0  0  0  0  0
  -10.8237  -17.7652   11.5575 O   0  0  0  0  0  0  0  0  0  0  0  0
  -12.0074  -18.8974    9.8881 C   0  0  0  0  0  0  0  0  0  0  0  0
  -11.9854  -20.0241    9.1851 N   0  0  0  0  0  0  0  0  0  0  0  0
  -13.0387  -20.5001    8.6282 N   0  0  0  0  0  0  0  0  0  0  0  0
  -14.2146  -19.9043    8.7160 C   0  0  0  0  0  0  0  0  0  0  0  0
  -14.3433  -18.7226    9.4279 C   0  0  0  0  0  0  0  0  0  0  0  0
  -13.2101  -18.2022   10.0396 C   0  0  0  0  0  0  0  0  0  0  0  0
   -8.4051  -18.1271   10.5170 C   0  0  0  0  0  0  0  0  0  0  0  0
   -8.4274  -16.9783   11.1729 N   0  0  0  0  0  0  0  0  0  0  0  0
   -7.3427  -16.4859   11.7506 C   0  0  0  0  0  0  0  0  0  0  0  0
   -7.4153  -15.2691   12.4322 N   0  0  0  0  0  0  0  0  0  0  0  0
   -7.0137  -14.1330   11.8289 C   0  0  0  0  0  0  0  0  0  0  0  0
   -6.5900  -14.1674   10.6931 O   0  0  0  0  0  0  0  0  0  0  0  0
   -7.0926  -12.8203   12.5643 C   0  0  0  0  0  0  0  0  0  0  0  0
   -6.1282  -17.1688   11.6854 C   0  0  0  0  0  0  0  0  0  0  0  0
   -4.6902  -16.5053   12.4585 S   0  0  0  0  0  0  0  0  0  0  0  0
   -3.4623  -16.8297   11.1683 C   0  0  0  0  0  0  0  0  0  0  0  0
   -2.6918  -17.0330   10.3585 N   0  0  0  0  0  0  0  0  0  0  0  0
   -6.0667  -18.3798   11.0052 C   0  0  0  0  0  0  0  0  0  0  0  0
   -7.2275  -18.8687   10.4157 C   0  0  0  0  0  0  0  0  0  0  0  0
   -7.2081  -20.3976    9.5418 S   0  0  0  0  0  0  0  0  0  0  0  0
   -7.7201  -19.8301    7.9012 C   0  0  0  0  0  0  0  0  0  0  0  0
   -8.0418  -19.4736    6.8717 N   0  0  0  0  0  0  0  0  0  0  0  0
  1  2  1  0
  1 10  1  0
  2  3  2  0
  2  4  1  0
  4  5  2  0
  4  9  1  0
  5  6  1  0
  6  7  2  0
  7  8  1  0
  8  9  2  0
 10 11  2  0
 10 22  1  0
 11 12  1  0
 12 13  1  0
 12 17  2  0
 13 14  1  0
 14 15  2  0
 14 16  1  0
 17 18  1  0
 17 21  1  0
 18 19  1  0
 19 20  3  0
 21 22  2  0
 22 23  1  0
 23 24  1  0
 24 25  3  0
M  END
>  <Gold.Gold.Protein.RotatedWaterAtoms>  (84) 


>  <Gold.Id.Protein>  (84) 


>  <Gold.PLP.Chemscore.CHOScore>  (84) 
0.4870

>  <Gold.PLP.Chemscore.Hbond>  (84) 
2.9920

>  <Gold.PLP.Chemscore.Internal.Correction>  (84) 
0.7828

>  <Gold.PLP.Chemscore.Metal>  (84) 
0.0000

>  <Gold.PLP.Fitness>  (84) 
57.1039

>  <Gold.PLP.PLP>  (84) 
-49.1169

>  <Gold.PLP.ligand.clash>  (84) 
0.0000

>  <Gold.PLP.ligand.torsion>  (84) 
1.6163

>  <Gold.PLP.part.buried>  (84) 
-6.7837

>  <Gold.PLP.part.hbond>  (84) 
-4.0000

>  <Gold.PLP.part.metal>  (84) 
0.0000

>  <Gold.PLP.part.nonpolar>  (84) 
-38.9799

>  <Gold.PLP.part.repulsive>  (84) 
0.6878

>  <Gold.Protein.RotatedAtoms>  (84) 


>  <Gold.Protein.RotatedTorsions>  (84) 


>  <Gold.Protein.RotatedWaterAtoms>  (84) 


>  <Gold.Version>  (84) 
5.3.0

>  <PLP.Chemscore.CHOScore>  (84) 


>  <PLP.Chemscore.Hbond>  (84) 


>  <PLP.Chemscore.Internal.Correction>  (84) 


>  <PLP.Chemscore.Metal>  (84) 


>  <PLP.Fitness>  (84) 


>  <PLP.PLP>  (84) 


>  <PLP.ligand.clash>  (84) 


>  <PLP.ligand.torsion>  (84) 


>  <PLP.part.buried>  (84) 


>  <PLP.part.hbond>  (84) 


>  <PLP.part.metal>  (84) 


>  <PLP.part.nonpolar>  (84) 


>  <PLP.part.repulsive>  (84) 


>  <Version>  (84) 


$$$$
3084|Compound_1912|Compounds_3D_F|sdf|554|dock4|1
     RDKit          3D

 25 26  0  0  0  0  0  0  0  0999 V2000
   -9.8363  -18.4739   10.3220 N   0  0  0  0  0  0  0  0  0  0  0  0
  -10.9270  -18.2663   11.0864 C   0  0  0  0  0  0  0  0  0  0  0  0
  -10.8178  -17.7142   12.1634 O   0  0  0  0  0  0  0  0  0  0  0  0
  -12.2577  -18.7111   10.6133 C   0  0  0  0  0  0  0  0  0  0  0  0
  -13.1016  -19.3032   11.4507 N   0  0  0  0  0  0  0  0  0  0  0  0
  -14.2628  -19.7022   11.0785 N   0  0  0  0  0  0  0  0  0  0  0  0
  -14.6980  -19.5516    9.8403 C   0  0  0  0  0  0  0  0  0  0  0  0
  -13.8928  -18.9450    8.8898 C   0  0  0  0  0  0  0  0  0  0  0  0
  -12.6362  -18.5039    9.2841 C   0  0  0  0  0  0  0  0  0  0  0  0
   -8.5813  -18.0594   10.7698 C   0  0  0  0  0  0  0  0  0  0  0  0
   -8.4502  -16.8734   11.3413 N   0  0  0  0  0  0  0  0  0  0  0  0
   -7.2797  -16.4388   11.7816 C   0  0  0  0  0  0  0  0  0  0  0  0
   -7.1909  -15.1792   12.3783 N   0  0  0  0  0  0  0  0  0  0  0  0
   -6.7514  -14.1241   11.6643 C   0  0  0  0  0  0  0  0  0  0  0  0
   -6.4341  -14.2686   10.5027 O   0  0  0  0  0  0  0  0  0  0  0  0
   -6.6561  -12.7652   12.3081 C   0  0  0  0  0  0  0  0  0  0  0  0
   -6.1344  -17.2249   11.6557 C   0  0  0  0  0  0  0  0  0  0  0  0
   -4.5812  -16.6377   12.2459 S   0  0  0  0  0  0  0  0  0  0  0  0
   -3.5464  -16.9799   10.8002 C   0  0  0  0  0  0  0  0  0  0  0  0
   -2.8972  -17.1950    9.8929 N   0  0  0  0  0  0  0  0  0  0  0  0
   -6.2337  -18.4777   11.0610 C   0  0  0  0  0  0  0  0  0  0  0  0
   -7.4806  -18.9031   10.6155 C   0  0  0  0  0  0  0  0  0  0  0  0
   -7.6653  -20.4808    9.8550 S   0  0  0  0  0  0  0  0  0  0  0  0
   -8.1494  -19.9724    8.1868 C   0  0  0  0  0  0  0  0  0  0  0  0
   -8.4531  -19.6537    7.1396 N   0  0  0  0  0  0  0  0  0  0  0  0
  1  2  1  0
  1 10  1  0
  2  3  2  0
  2  4  1  0
  4  5  2  0
  4  9  1  0
  5  6  1  0
  6  7  2  0
  7  8  1  0
  8  9  2  0
 10 11  2  0
 10 22  1  0
 11 12  1  0
 12 13  1  0
 12 17  2  0
 13 14  1  0
 14 15  2  0
 14 16  1  0
 17 18  1  0
 17 21  1  0
 18 19  1  0
 19 20  3  0
 21 22  2  0
 22 23  1  0
 23 24  1  0
 24 25  3  0
M  END
>  <Gold.Gold.Protein.RotatedWaterAtoms>  (85) 


>  <Gold.Id.Protein>  (85) 


>  <Gold.PLP.Chemscore.CHOScore>  (85) 
0.0828

>  <Gold.PLP.Chemscore.Hbond>  (85) 
2.6628

>  <Gold.PLP.Chemscore.Internal.Correction>  (85) 
0.7828

>  <Gold.PLP.Chemscore.Metal>  (85) 
0.0000

>  <Gold.PLP.Fitness>  (85) 
55.9034

>  <Gold.PLP.PLP>  (85) 
-50.7027

>  <Gold.PLP.ligand.clash>  (85) 
0.0000

>  <Gold.PLP.ligand.torsion>  (85) 
1.9095

>  <Gold.PLP.part.buried>  (85) 
-7.4208

>  <Gold.PLP.part.hbond>  (85) 
-3.8333

>  <Gold.PLP.part.metal>  (85) 
0.0000

>  <Gold.PLP.part.nonpolar>  (85) 
-39.8969

>  <Gold.PLP.part.repulsive>  (85) 
0.7189

>  <Gold.Protein.RotatedAtoms>  (85) 


>  <Gold.Protein.RotatedTorsions>  (85) 


>  <Gold.Protein.RotatedWaterAtoms>  (85) 


>  <Gold.Version>  (85) 
5.3.0

>  <PLP.Chemscore.CHOScore>  (85) 


>  <PLP.Chemscore.Hbond>  (85) 


>  <PLP.Chemscore.Internal.Correction>  (85) 


>  <PLP.Chemscore.Metal>  (85) 


>  <PLP.Fitness>  (85) 


>  <PLP.PLP>  (85) 


>  <PLP.ligand.clash>  (85) 


>  <PLP.ligand.torsion>  (85) 


>  <PLP.part.buried>  (85) 


>  <PLP.part.hbond>  (85) 


>  <PLP.part.metal>  (85) 


>  <PLP.part.nonpolar>  (85) 


>  <PLP.part.repulsive>  (85) 


>  <Version>  (85) 


$$$$
3085|Compound_1914|Compounds_3D_F|sdf|555|dock1|1
     RDKit          3D

 30 33  0  0  0  0  0  0  0  0999 V2000
   -8.2019  -19.1312    7.5795 O   0  0  0  0  0  0  0  0  0  0  0  0
   -8.8006  -18.8304    8.7570 C   0  0  0  0  0  0  0  0  0  0  0  0
   -9.6000  -19.7284    9.3154 N   0  0  0  0  0  0  0  0  0  0  0  0
  -10.2107  -19.4823   10.4683 C   0  0  0  0  0  0  0  0  0  0  0  0
  -11.0452  -20.4297   11.0455 N   0  0  0  0  0  0  0  0  0  0  0  0
  -11.9027  -21.1290   10.2761 C   0  0  0  0  0  0  0  0  0  0  0  0
  -11.9466  -20.9302    9.0774 O   0  0  0  0  0  0  0  0  0  0  0  0
  -12.7893  -22.1349   10.8885 C   0  0  0  0  0  0  0  0  0  0  0  0
  -12.6657  -22.7569   12.1078 C   0  0  0  0  0  0  0  0  0  0  0  0
  -13.7094  -23.5819   12.2158 O   0  0  0  0  0  0  0  0  0  0  0  0
  -14.4391  -23.5523   11.2544 N   0  0  0  0  0  0  0  0  0  0  0  0
  -14.0292  -22.7152   10.3484 C   0  0  0  0  0  0  0  0  0  0  0  0
  -14.6785  -22.4122    9.0232 C   0  0  0  0  0  0  0  0  0  0  0  0
  -14.8195  -20.8975    8.8592 C   0  0  0  0  0  0  0  0  0  0  0  0
  -11.5705  -22.5487   13.1207 C   0  0  0  0  0  0  0  0  0  0  0  0
   -9.9927  -18.2430   11.0918 C   0  0  0  0  0  0  0  0  0  0  0  0
  -10.4325  -17.6630   12.2356 N   0  0  0  0  0  0  0  0  0  0  0  0
   -9.9144  -16.4743   12.3451 C   0  0  0  0  0  0  0  0  0  0  0  0
   -9.1080  -16.2171   11.2760 N   0  0  0  0  0  0  0  0  0  0  0  0
   -9.1377  -17.3219   10.4624 C   0  0  0  0  0  0  0  0  0  0  0  0
   -8.5643  -17.6546    9.3116 N   0  0  0  0  0  0  0  0  0  0  0  0
   -8.3492  -14.9863   11.0376 C   0  0  0  0  0  0  0  0  0  0  0  0
   -7.0112  -15.1115   11.5668 O   0  0  0  0  0  0  0  0  0  0  0  0
   -6.5402  -13.7566   11.7337 C   0  0  0  0  0  0  0  0  0  0  0  0
   -5.3805  -13.7147   12.7309 C   0  0  0  0  0  0  0  0  0  0  0  0
   -5.2508  -12.3918   13.2555 O   0  0  0  0  0  0  0  0  0  0  0  0
   -7.7570  -12.9817   12.2878 C   0  0  0  0  0  0  0  0  0  0  0  0
   -7.8031  -11.6634   11.7389 O   0  0  0  0  0  0  0  0  0  0  0  0
   -8.9762  -13.8092   11.8167 C   0  0  0  0  0  0  0  0  0  0  0  0
   -9.8113  -13.0265   10.9622 O   0  0  0  0  0  0  0  0  0  0  0  0
  1  2  1  0
  2  3  2  0
  2 21  1  0
  3  4  1  0
  4  5  1  0
  4 16  2  0
  5  6  1  0
  6  7  2  0
  6  8  1  0
  8  9  2  0
  8 12  1  0
  9 10  1  0
  9 15  1  0
 10 11  1  0
 11 12  2  0
 12 13  1  0
 13 14  1  0
 16 17  1  0
 16 20  1  0
 17 18  2  0
 18 19  1  0
 19 20  1  0
 19 22  1  0
 20 21  2  0
 22 23  1  0
 22 29  1  0
 23 24  1  0
 24 25  1  0
 24 27  1  0
 25 26  1  0
 27 28  1  0
 27 29  1  0
 29 30  1  0
M  END
>  <Gold.Gold.Protein.RotatedWaterAtoms>  (86) 


>  <Gold.Id.Protein>  (86) 


>  <Gold.PLP.Chemscore.CHOScore>  (86) 
1.0000

>  <Gold.PLP.Chemscore.Hbond>  (86) 
5.6338

>  <Gold.PLP.Chemscore.Internal.Correction>  (86) 
0.4706

>  <Gold.PLP.Chemscore.Metal>  (86) 
0.0000

>  <Gold.PLP.Fitness>  (86) 
62.1205

>  <Gold.PLP.PLP>  (86) 
-44.6348

>  <Gold.PLP.ligand.clash>  (86) 
0.0000

>  <Gold.PLP.ligand.torsion>  (86) 
1.4431

>  <Gold.PLP.part.buried>  (86) 
-1.6847

>  <Gold.PLP.part.hbond>  (86) 
-9.5058

>  <Gold.PLP.part.metal>  (86) 
0.0000

>  <Gold.PLP.part.nonpolar>  (86) 
-35.4900

>  <Gold.PLP.part.repulsive>  (86) 
0.1157

>  <Gold.Protein.RotatedAtoms>  (86) 


>  <Gold.Protein.RotatedTorsions>  (86) 


>  <Gold.Protein.RotatedWaterAtoms>  (86) 


>  <Gold.Version>  (86) 
5.3.0

>  <PLP.Chemscore.CHOScore>  (86) 


>  <PLP.Chemscore.Hbond>  (86) 


>  <PLP.Chemscore.Internal.Correction>  (86) 


>  <PLP.Chemscore.Metal>  (86) 


>  <PLP.Fitness>  (86) 


>  <PLP.PLP>  (86) 


>  <PLP.ligand.clash>  (86) 


>  <PLP.ligand.torsion>  (86) 


>  <PLP.part.buried>  (86) 


>  <PLP.part.hbond>  (86) 


>  <PLP.part.metal>  (86) 


>  <PLP.part.nonpolar>  (86) 


>  <PLP.part.repulsive>  (86) 


>  <Version>  (86) 


$$$$
3086|Compound_1914|Compounds_3D_F|sdf|555|dock2|1
     RDKit          3D

 30 33  0  0  0  0  0  0  0  0999 V2000
   -8.4742  -19.0410    7.3334 O   0  0  0  0  0  0  0  0  0  0  0  0
   -8.9645  -18.8060    8.5743 C   0  0  0  0  0  0  0  0  0  0  0  0
   -9.7407  -19.7205    9.1387 N   0  0  0  0  0  0  0  0  0  0  0  0
  -10.2466  -19.5380   10.3525 C   0  0  0  0  0  0  0  0  0  0  0  0
  -11.0576  -20.5022   10.9354 N   0  0  0  0  0  0  0  0  0  0  0  0
  -12.0363  -21.0838   10.2141 C   0  0  0  0  0  0  0  0  0  0  0  0
  -12.2100  -20.7640    9.0539 O   0  0  0  0  0  0  0  0  0  0  0  0
  -12.8980  -22.1073   10.8325 C   0  0  0  0  0  0  0  0  0  0  0  0
  -12.9891  -22.4643   12.1566 C   0  0  0  0  0  0  0  0  0  0  0  0
  -13.9045  -23.4336   12.2218 O   0  0  0  0  0  0  0  0  0  0  0  0
  -14.3767  -23.7135   11.1466 N   0  0  0  0  0  0  0  0  0  0  0  0
  -13.8785  -22.9938   10.1855 C   0  0  0  0  0  0  0  0  0  0  0  0
  -14.2229  -23.0610    8.7206 C   0  0  0  0  0  0  0  0  0  0  0  0
  -14.6746  -21.6805    8.2394 C   0  0  0  0  0  0  0  0  0  0  0  0
  -12.2110  -21.8781   13.3053 C   0  0  0  0  0  0  0  0  0  0  0  0
   -9.9418  -18.3489   11.0346 C   0  0  0  0  0  0  0  0  0  0  0  0
  -10.2686  -17.8369   12.2467 N   0  0  0  0  0  0  0  0  0  0  0  0
   -9.7089  -16.6707   12.3891 C   0  0  0  0  0  0  0  0  0  0  0  0
   -8.9866  -16.3613   11.2747 N   0  0  0  0  0  0  0  0  0  0  0  0
   -9.1155  -17.4080   10.3964 C   0  0  0  0  0  0  0  0  0  0  0  0
   -8.6491  -17.6760    9.1821 N   0  0  0  0  0  0  0  0  0  0  0  0
   -8.2147  -15.1354   11.0535 C   0  0  0  0  0  0  0  0  0  0  0  0
   -6.9041  -15.2535   11.6489 O   0  0  0  0  0  0  0  0  0  0  0  0
   -6.4392  -13.8966   11.8166 C   0  0  0  0  0  0  0  0  0  0  0  0
   -5.3291  -13.8399   12.8680 C   0  0  0  0  0  0  0  0  0  0  0  0
   -5.0293  -12.4760   13.1713 O   0  0  0  0  0  0  0  0  0  0  0  0
   -7.6799  -13.1115   12.2984 C   0  0  0  0  0  0  0  0  0  0  0  0
   -7.6967  -11.8021   11.7267 O   0  0  0  0  0  0  0  0  0  0  0  0
   -8.8765  -13.9451   11.7822 C   0  0  0  0  0  0  0  0  0  0  0  0
   -9.6677  -13.1753   10.8757 O   0  0  0  0  0  0  0  0  0  0  0  0
  1  2  1  0
  2  3  2  0
  2 21  1  0
  3  4  1  0
  4  5  1  0
  4 16  2  0
  5  6  1  0
  6  7  2  0
  6  8  1  0
  8  9  2  0
  8 12  1  0
  9 10  1  0
  9 15  1  0
 10 11  1  0
 11 12  2  0
 12 13  1  0
 13 14  1  0
 16 17  1  0
 16 20  1  0
 17 18  2  0
 18 19  1  0
 19 20  1  0
 19 22  1  0
 20 21  2  0
 22 23  1  0
 22 29  1  0
 23 24  1  0
 24 25  1  0
 24 27  1  0
 25 26  1  0
 27 28  1  0
 27 29  1  0
 29 30  1  0
M  END
>  <Gold.Gold.Protein.RotatedWaterAtoms>  (87) 


>  <Gold.Id.Protein>  (87) 


>  <Gold.PLP.Chemscore.CHOScore>  (87) 
1.0000

>  <Gold.PLP.Chemscore.Hbond>  (87) 
5.9348

>  <Gold.PLP.Chemscore.Internal.Correction>  (87) 
0.4242

>  <Gold.PLP.Chemscore.Metal>  (87) 
0.0000

>  <Gold.PLP.Fitness>  (87) 
62.4357

>  <Gold.PLP.PLP>  (87) 
-44.4259

>  <Gold.PLP.ligand.clash>  (87) 
0.8882

>  <Gold.PLP.ligand.torsion>  (87) 
1.1653

>  <Gold.PLP.part.buried>  (87) 
-2.9682

>  <Gold.PLP.part.hbond>  (87) 
-9.1157

>  <Gold.PLP.part.metal>  (87) 
0.0000

>  <Gold.PLP.part.nonpolar>  (87) 
-33.8909

>  <Gold.PLP.part.repulsive>  (87) 
0.1304

>  <Gold.Protein.RotatedAtoms>  (87) 


>  <Gold.Protein.RotatedTorsions>  (87) 


>  <Gold.Protein.RotatedWaterAtoms>  (87) 


>  <Gold.Version>  (87) 
5.3.0

>  <PLP.Chemscore.CHOScore>  (87) 


>  <PLP.Chemscore.Hbond>  (87) 


>  <PLP.Chemscore.Internal.Correction>  (87) 


>  <PLP.Chemscore.Metal>  (87) 


>  <PLP.Fitness>  (87) 


>  <PLP.PLP>  (87) 


>  <PLP.ligand.clash>  (87) 


>  <PLP.ligand.torsion>  (87) 


>  <PLP.part.buried>  (87) 


>  <PLP.part.hbond>  (87) 


>  <PLP.part.metal>  (87) 


>  <PLP.part.nonpolar>  (87) 


>  <PLP.part.repulsive>  (87) 


>  <Version>  (87) 


$$$$
3087|Compound_1914|Compounds_3D_F|sdf|555|dock3|1
     RDKit          3D

 30 33  0  0  0  0  0  0  0  0999 V2000
   -8.3100  -19.2401    7.7292 O   0  0  0  0  0  0  0  0  0  0  0  0
   -8.9575  -18.8888    8.8663 C   0  0  0  0  0  0  0  0  0  0  0  0
   -9.8209  -19.7415    9.3997 N   0  0  0  0  0  0  0  0  0  0  0  0
  -10.4813  -19.4448   10.5126 C   0  0  0  0  0  0  0  0  0  0  0  0
  -11.3827  -20.3450   11.0640 N   0  0  0  0  0  0  0  0  0  0  0  0
  -12.3610  -20.8708   10.3005 C   0  0  0  0  0  0  0  0  0  0  0  0
  -12.4551  -20.5566    9.1296 O   0  0  0  0  0  0  0  0  0  0  0  0
  -13.3186  -21.8265   10.8855 C   0  0  0  0  0  0  0  0  0  0  0  0
  -13.6957  -21.9654   12.1998 C   0  0  0  0  0  0  0  0  0  0  0  0
  -14.5834  -22.9616   12.2323 O   0  0  0  0  0  0  0  0  0  0  0  0
  -14.7983  -23.4414   11.1455 N   0  0  0  0  0  0  0  0  0  0  0  0
  -14.1125  -22.8622   10.2052 C   0  0  0  0  0  0  0  0  0  0  0  0
  -14.1201  -23.1892    8.7347 C   0  0  0  0  0  0  0  0  0  0  0  0
  -14.5197  -21.9455    7.9381 C   0  0  0  0  0  0  0  0  0  0  0  0
  -13.2050  -21.1543   13.3704 C   0  0  0  0  0  0  0  0  0  0  0  0
  -10.2466  -18.2008   11.1206 C   0  0  0  0  0  0  0  0  0  0  0  0
  -10.7226  -17.5776   12.2266 N   0  0  0  0  0  0  0  0  0  0  0  0
  -10.1633  -16.4079   12.3386 C   0  0  0  0  0  0  0  0  0  0  0  0
   -9.2919  -16.2075   11.3092 N   0  0  0  0  0  0  0  0  0  0  0  0
   -9.3231  -17.3289   10.5187 C   0  0  0  0  0  0  0  0  0  0  0  0
   -8.7035  -17.7106    9.4077 N   0  0  0  0  0  0  0  0  0  0  0  0
   -8.4724  -15.0133   11.0859 C   0  0  0  0  0  0  0  0  0  0  0  0
   -7.1433  -15.2107   11.6156 O   0  0  0  0  0  0  0  0  0  0  0  0
   -6.6060  -13.8829   11.7987 C   0  0  0  0  0  0  0  0  0  0  0  0
   -5.4476  -13.9099   12.7979 C   0  0  0  0  0  0  0  0  0  0  0  0
   -4.8099  -12.6313   12.8228 O   0  0  0  0  0  0  0  0  0  0  0  0
   -7.7839  -13.0549   12.3598 C   0  0  0  0  0  0  0  0  0  0  0  0
   -7.7633  -11.7297   11.8259 O   0  0  0  0  0  0  0  0  0  0  0  0
   -9.0417  -13.8154   11.8775 C   0  0  0  0  0  0  0  0  0  0  0  0
   -9.8352  -12.9825   11.0308 O   0  0  0  0  0  0  0  0  0  0  0  0
  1  2  1  0
  2  3  2  0
  2 21  1  0
  3  4  1  0
  4  5  1  0
  4 16  2  0
  5  6  1  0
  6  7  2  0
  6  8  1  0
  8  9  2  0
  8 12  1  0
  9 10  1  0
  9 15  1  0
 10 11  1  0
 11 12  2  0
 12 13  1  0
 13 14  1  0
 16 17  1  0
 16 20  1  0
 17 18  2  0
 18 19  1  0
 19 20  1  0
 19 22  1  0
 20 21  2  0
 22 23  1  0
 22 29  1  0
 23 24  1  0
 24 25  1  0
 24 27  1  0
 25 26  1  0
 27 28  1  0
 27 29  1  0
 29 30  1  0
M  END
>  <Gold.Gold.Protein.RotatedWaterAtoms>  (88) 


>  <Gold.Id.Protein>  (88) 


>  <Gold.PLP.Chemscore.CHOScore>  (88) 
1.0000

>  <Gold.PLP.Chemscore.Hbond>  (88) 
5.7126

>  <Gold.PLP.Chemscore.Internal.Correction>  (88) 
0.4242

>  <Gold.PLP.Chemscore.Metal>  (88) 
0.0000

>  <Gold.PLP.Fitness>  (88) 
64.7052

>  <Gold.PLP.PLP>  (88) 
-46.9237

>  <Gold.PLP.ligand.clash>  (88) 
0.0000

>  <Gold.PLP.ligand.torsion>  (88) 
1.3902

>  <Gold.PLP.part.buried>  (88) 
0.5998

>  <Gold.PLP.part.hbond>  (88) 
-9.7629

>  <Gold.PLP.part.metal>  (88) 
0.0000

>  <Gold.PLP.part.nonpolar>  (88) 
-38.5936

>  <Gold.PLP.part.repulsive>  (88) 
0.1936

>  <Gold.Protein.RotatedAtoms>  (88) 


>  <Gold.Protein.RotatedTorsions>  (88) 


>  <Gold.Protein.RotatedWaterAtoms>  (88) 


>  <Gold.Version>  (88) 
5.3.0

>  <PLP.Chemscore.CHOScore>  (88) 


>  <PLP.Chemscore.Hbond>  (88) 


>  <PLP.Chemscore.Internal.Correction>  (88) 


>  <PLP.Chemscore.Metal>  (88) 


>  <PLP.Fitness>  (88) 


>  <PLP.PLP>  (88) 


>  <PLP.ligand.clash>  (88) 


>  <PLP.ligand.torsion>  (88) 


>  <PLP.part.buried>  (88) 


>  <PLP.part.hbond>  (88) 


>  <PLP.part.metal>  (88) 


>  <PLP.part.nonpolar>  (88) 


>  <PLP.part.repulsive>  (88) 


>  <Version>  (88) 


$$$$
3088|Compound_1915|Compounds_3D_F|sdf|556|dock1|1
     RDKit          3D

 20 21  0  0  0  0  0  0  0  0999 V2000
   -8.8438  -17.2632   11.8689 N   0  0  0  0  0  0  0  0  0  0  0  0
   -8.4118  -16.1624   11.2218 C   0  0  0  0  0  0  0  0  0  0  0  0
   -9.0775  -15.6855   10.3226 O   0  0  0  0  0  0  0  0  0  0  0  0
   -7.1330  -15.5376   11.6046 C   0  0  0  0  0  0  0  0  0  0  0  0
   -5.9269  -16.1435   11.8602 C   0  0  0  0  0  0  0  0  0  0  0  0
   -5.0730  -15.1638   12.1666 O   0  0  0  0  0  0  0  0  0  0  0  0
   -5.5763  -14.0672   12.1346 N   0  0  0  0  0  0  0  0  0  0  0  0
   -6.8321  -14.1114   11.8012 C   0  0  0  0  0  0  0  0  0  0  0  0
   -7.7810  -12.9487   11.6591 C   0  0  0  0  0  0  0  0  0  0  0  0
   -9.1011  -13.2813   12.3560 C   0  0  0  0  0  0  0  0  0  0  0  0
   -5.6268  -17.6187   11.8066 C   0  0  0  0  0  0  0  0  0  0  0  0
  -10.0470  -17.8559   11.5052 C   0  0  0  0  0  0  0  0  0  0  0  0
  -11.0147  -18.3562   12.2623 N   0  0  0  0  0  0  0  0  0  0  0  0
  -12.0554  -18.8629   11.7623 N   0  0  0  0  0  0  0  0  0  0  0  0
  -12.2484  -18.9292   10.4594 C   0  0  0  0  0  0  0  0  0  0  0  0
  -10.7405  -18.1560    9.8818 S   0  0  0  0  0  0  0  0  0  0  0  0
  -13.4095  -19.4897    9.6795 C   0  0  0  0  0  0  0  0  0  0  0  0
  -13.9818  -18.4773    8.9023 F   0  0  0  0  0  0  0  0  0  0  0  0
  -12.9575  -20.5181    8.8456 F   0  0  0  0  0  0  0  0  0  0  0  0
  -14.3666  -19.9945   10.5664 F   0  0  0  0  0  0  0  0  0  0  0  0
  1  2  1  0
  1 12  1  0
  2  3  2  0
  2  4  1  0
  4  5  2  0
  4  8  1  0
  5  6  1  0
  5 11  1  0
  6  7  1  0
  7  8  2  0
  8  9  1  0
  9 10  1  0
 12 13  2  0
 12 16  1  0
 13 14  1  0
 14 15  2  0
 15 16  1  0
 15 17  1  0
 17 18  1  0
 17 19  1  0
 17 20  1  0
M  END
>  <Gold.Gold.Protein.RotatedWaterAtoms>  (89) 


>  <Gold.Id.Protein>  (89) 


>  <Gold.PLP.Chemscore.CHOScore>  (89) 
0.0000

>  <Gold.PLP.Chemscore.Hbond>  (89) 
1.0000

>  <Gold.PLP.Chemscore.Internal.Correction>  (89) 
0.0228

>  <Gold.PLP.Chemscore.Metal>  (89) 
0.0000

>  <Gold.PLP.Fitness>  (89) 
47.1073

>  <Gold.PLP.PLP>  (89) 
-46.5926

>  <Gold.PLP.ligand.clash>  (89) 
0.0000

>  <Gold.PLP.ligand.torsion>  (89) 
1.2540

>  <Gold.PLP.part.buried>  (89) 
-8.8059

>  <Gold.PLP.part.hbond>  (89) 
-2.0000

>  <Gold.PLP.part.metal>  (89) 
0.0000

>  <Gold.PLP.part.nonpolar>  (89) 
-36.7375

>  <Gold.PLP.part.repulsive>  (89) 
0.5985

>  <Gold.Protein.RotatedAtoms>  (89) 


>  <Gold.Protein.RotatedTorsions>  (89) 


>  <Gold.Protein.RotatedWaterAtoms>  (89) 


>  <Gold.Version>  (89) 
5.3.0

>  <PLP.Chemscore.CHOScore>  (89) 


>  <PLP.Chemscore.Hbond>  (89) 


>  <PLP.Chemscore.Internal.Correction>  (89) 


>  <PLP.Chemscore.Metal>  (89) 


>  <PLP.Fitness>  (89) 


>  <PLP.PLP>  (89) 


>  <PLP.ligand.clash>  (89) 


>  <PLP.ligand.torsion>  (89) 


>  <PLP.part.buried>  (89) 


>  <PLP.part.hbond>  (89) 


>  <PLP.part.metal>  (89) 


>  <PLP.part.nonpolar>  (89) 


>  <PLP.part.repulsive>  (89) 


>  <Version>  (89) 


$$$$
3089|Compound_1915|Compounds_3D_F|sdf|556|dock2|1
     RDKit          3D

 20 21  0  0  0  0  0  0  0  0999 V2000
   -8.1481  -15.6505   11.9755 N   0  0  0  0  0  0  0  0  0  0  0  0
   -8.3479  -14.3224   12.0913 C   0  0  0  0  0  0  0  0  0  0  0  0
   -9.4777  -13.8846   12.1959 O   0  0  0  0  0  0  0  0  0  0  0  0
   -7.1968  -13.4019   12.0914 C   0  0  0  0  0  0  0  0  0  0  0  0
   -5.8688  -13.6919   12.2892 C   0  0  0  0  0  0  0  0  0  0  0  0
   -5.2141  -12.5318   12.1972 O   0  0  0  0  0  0  0  0  0  0  0  0
   -5.9396  -11.5930   11.9752 N   0  0  0  0  0  0  0  0  0  0  0  0
   -7.1862  -11.9473   11.8736 C   0  0  0  0  0  0  0  0  0  0  0  0
   -8.3704  -11.0546   11.6029 C   0  0  0  0  0  0  0  0  0  0  0  0
   -7.9292   -9.5915   11.6645 C   0  0  0  0  0  0  0  0  0  0  0  0
   -5.2696  -15.0478   12.5573 C   0  0  0  0  0  0  0  0  0  0  0  0
   -9.2330  -16.5188   11.9703 C   0  0  0  0  0  0  0  0  0  0  0  0
  -10.4485  -16.3684   12.4802 N   0  0  0  0  0  0  0  0  0  0  0  0
  -11.3262  -17.2684   12.3833 N   0  0  0  0  0  0  0  0  0  0  0  0
  -11.0936  -18.4138   11.7722 C   0  0  0  0  0  0  0  0  0  0  0  0
   -9.3954  -18.1573   11.2665 S   0  0  0  0  0  0  0  0  0  0  0  0
  -12.0003  -19.5976   11.5555 C   0  0  0  0  0  0  0  0  0  0  0  0
  -12.1389  -19.8344   10.1839 F   0  0  0  0  0  0  0  0  0  0  0  0
  -11.4474  -20.7265   12.1697 F   0  0  0  0  0  0  0  0  0  0  0  0
  -13.2560  -19.3312   12.1121 F   0  0  0  0  0  0  0  0  0  0  0  0
  1  2  1  0
  1 12  1  0
  2  3  2  0
  2  4  1  0
  4  5  2  0
  4  8  1  0
  5  6  1  0
  5 11  1  0
  6  7  1  0
  7  8  2  0
  8  9  1  0
  9 10  1  0
 12 13  2  0
 12 16  1  0
 13 14  1  0
 14 15  2  0
 15 16  1  0
 15 17  1  0
 17 18  1  0
 17 19  1  0
 17 20  1  0
M  END
>  <Gold.Gold.Protein.RotatedWaterAtoms>  (90) 


>  <Gold.Id.Protein>  (90) 


>  <Gold.PLP.Chemscore.CHOScore>  (90) 
0.0000

>  <Gold.PLP.Chemscore.Hbond>  (90) 
1.9100

>  <Gold.PLP.Chemscore.Internal.Correction>  (90) 
0.0199

>  <Gold.PLP.Chemscore.Metal>  (90) 
0.0000

>  <Gold.PLP.Fitness>  (90) 
58.8811

>  <Gold.PLP.PLP>  (90) 
-53.8610

>  <Gold.PLP.ligand.clash>  (90) 
0.0709

>  <Gold.PLP.ligand.torsion>  (90) 
0.3294

>  <Gold.PLP.part.buried>  (90) 
-7.1079

>  <Gold.PLP.part.hbond>  (90) 
-4.5837

>  <Gold.PLP.part.metal>  (90) 
0.0000

>  <Gold.PLP.part.nonpolar>  (90) 
-42.7205

>  <Gold.PLP.part.repulsive>  (90) 
1.0055

>  <Gold.Protein.RotatedAtoms>  (90) 


>  <Gold.Protein.RotatedTorsions>  (90) 


>  <Gold.Protein.RotatedWaterAtoms>  (90) 


>  <Gold.Version>  (90) 
5.3.0

>  <PLP.Chemscore.CHOScore>  (90) 


>  <PLP.Chemscore.Hbond>  (90) 


>  <PLP.Chemscore.Internal.Correction>  (90) 


>  <PLP.Chemscore.Metal>  (90) 


>  <PLP.Fitness>  (90) 


>  <PLP.PLP>  (90) 


>  <PLP.ligand.clash>  (90) 


>  <PLP.ligand.torsion>  (90) 


>  <PLP.part.buried>  (90) 


>  <PLP.part.hbond>  (90) 


>  <PLP.part.metal>  (90) 


>  <PLP.part.nonpolar>  (90) 


>  <PLP.part.repulsive>  (90) 


>  <Version>  (90) 


$$$$
3090|Compound_1915|Compounds_3D_F|sdf|556|dock3|1
     RDKit          3D

 20 21  0  0  0  0  0  0  0  0999 V2000
   -8.6575  -17.4989   11.6663 N   0  0  0  0  0  0  0  0  0  0  0  0
   -8.4083  -16.1742   11.6535 C   0  0  0  0  0  0  0  0  0  0  0  0
   -9.3016  -15.3902   11.3960 O   0  0  0  0  0  0  0  0  0  0  0  0
   -7.0532  -15.6770   11.9519 C   0  0  0  0  0  0  0  0  0  0  0  0
   -5.8657  -16.3674   11.9376 C   0  0  0  0  0  0  0  0  0  0  0  0
   -4.9182  -15.4900   12.2770 O   0  0  0  0  0  0  0  0  0  0  0  0
   -5.3499  -14.3835   12.4918 N   0  0  0  0  0  0  0  0  0  0  0  0
   -6.6384  -14.3182   12.3322 C   0  0  0  0  0  0  0  0  0  0  0  0
   -7.5210  -13.1093   12.5115 C   0  0  0  0  0  0  0  0  0  0  0  0
   -6.8318  -11.8827   11.9117 C   0  0  0  0  0  0  0  0  0  0  0  0
   -5.6705  -17.8239   11.6062 C   0  0  0  0  0  0  0  0  0  0  0  0
   -9.9336  -17.9689   11.3802 C   0  0  0  0  0  0  0  0  0  0  0  0
  -10.8969  -18.3734   12.1976 N   0  0  0  0  0  0  0  0  0  0  0  0
  -12.0117  -18.7734   11.7651 N   0  0  0  0  0  0  0  0  0  0  0  0
  -12.2911  -18.8166   10.4770 C   0  0  0  0  0  0  0  0  0  0  0  0
  -10.7531  -18.1943    9.8041 S   0  0  0  0  0  0  0  0  0  0  0  0
  -13.5481  -19.2574    9.7727 C   0  0  0  0  0  0  0  0  0  0  0  0
  -13.2506  -20.3120    8.9032 F   0  0  0  0  0  0  0  0  0  0  0  0
  -14.4868  -19.6839   10.7184 F   0  0  0  0  0  0  0  0  0  0  0  0
  -14.0742  -18.1856    9.0433 F   0  0  0  0  0  0  0  0  0  0  0  0
  1  2  1  0
  1 12  1  0
  2  3  2  0
  2  4  1  0
  4  5  2  0
  4  8  1  0
  5  6  1  0
  5 11  1  0
  6  7  1  0
  7  8  2  0
  8  9  1  0
  9 10  1  0
 12 13  2  0
 12 16  1  0
 13 14  1  0
 14 15  2  0
 15 16  1  0
 15 17  1  0
 17 18  1  0
 17 19  1  0
 17 20  1  0
M  END
>  <Gold.Gold.Protein.RotatedWaterAtoms>  (91) 


>  <Gold.Id.Protein>  (91) 


>  <Gold.PLP.Chemscore.CHOScore>  (91) 
0.0000

>  <Gold.PLP.Chemscore.Hbond>  (91) 
1.1165

>  <Gold.PLP.Chemscore.Internal.Correction>  (91) 
0.0199

>  <Gold.PLP.Chemscore.Metal>  (91) 
0.0000

>  <Gold.PLP.Fitness>  (91) 
49.9880

>  <Gold.PLP.PLP>  (91) 
-48.8624

>  <Gold.PLP.ligand.clash>  (91) 
0.0000

>  <Gold.PLP.ligand.torsion>  (91) 
1.1219

>  <Gold.PLP.part.buried>  (91) 
-9.7057

>  <Gold.PLP.part.hbond>  (91) 
-1.8856

>  <Gold.PLP.part.metal>  (91) 
0.0000

>  <Gold.PLP.part.nonpolar>  (91) 
-38.3823

>  <Gold.PLP.part.repulsive>  (91) 
0.5957

>  <Gold.Protein.RotatedAtoms>  (91) 


>  <Gold.Protein.RotatedTorsions>  (91) 


>  <Gold.Protein.RotatedWaterAtoms>  (91) 


>  <Gold.Version>  (91) 
5.3.0

>  <PLP.Chemscore.CHOScore>  (91) 


>  <PLP.Chemscore.Hbond>  (91) 


>  <PLP.Chemscore.Internal.Correction>  (91) 


>  <PLP.Chemscore.Metal>  (91) 


>  <PLP.Fitness>  (91) 


>  <PLP.PLP>  (91) 


>  <PLP.ligand.clash>  (91) 


>  <PLP.ligand.torsion>  (91) 


>  <PLP.part.buried>  (91) 


>  <PLP.part.hbond>  (91) 


>  <PLP.part.metal>  (91) 


>  <PLP.part.nonpolar>  (91) 


>  <PLP.part.repulsive>  (91) 


>  <Version>  (91) 


$$$$
3091|Compound_1915|Compounds_3D_F|sdf|556|dock4|1
     RDKit          3D

 20 21  0  0  0  0  0  0  0  0999 V2000
   -8.6778  -16.2223   11.8734 N   0  0  0  0  0  0  0  0  0  0  0  0
   -8.6640  -14.8794   11.7575 C   0  0  0  0  0  0  0  0  0  0  0  0
   -9.6592  -14.2917   11.3791 O   0  0  0  0  0  0  0  0  0  0  0  0
   -7.4426  -14.1242   12.0897 C   0  0  0  0  0  0  0  0  0  0  0  0
   -6.2331  -14.6035   12.5306 C   0  0  0  0  0  0  0  0  0  0  0  0
   -5.4447  -13.5383   12.6934 O   0  0  0  0  0  0  0  0  0  0  0  0
   -5.9901  -12.4969   12.4194 N   0  0  0  0  0  0  0  0  0  0  0  0
   -7.2164  -12.6723   12.0249 C   0  0  0  0  0  0  0  0  0  0  0  0
   -8.2008  -11.6115   11.6031 C   0  0  0  0  0  0  0  0  0  0  0  0
   -7.6027  -10.2287   11.8666 C   0  0  0  0  0  0  0  0  0  0  0  0
   -5.8684  -16.0434   12.7816 C   0  0  0  0  0  0  0  0  0  0  0  0
   -9.8273  -16.9356   11.5557 C   0  0  0  0  0  0  0  0  0  0  0  0
  -10.8718  -17.2506   12.3104 N   0  0  0  0  0  0  0  0  0  0  0  0
  -11.8449  -17.9115   11.8566 N   0  0  0  0  0  0  0  0  0  0  0  0
  -11.8871  -18.3319   10.6073 C   0  0  0  0  0  0  0  0  0  0  0  0
  -10.3284  -17.6858   10.0089 S   0  0  0  0  0  0  0  0  0  0  0  0
  -12.9474  -19.1242    9.8872 C   0  0  0  0  0  0  0  0  0  0  0  0
  -12.3629  -20.2382    9.2755 F   0  0  0  0  0  0  0  0  0  0  0  0
  -13.9141  -19.5501   10.8045 F   0  0  0  0  0  0  0  0  0  0  0  0
  -13.5497  -18.3199    8.9137 F   0  0  0  0  0  0  0  0  0  0  0  0
  1  2  1  0
  1 12  1  0
  2  3  2  0
  2  4  1  0
  4  5  2  0
  4  8  1  0
  5  6  1  0
  5 11  1  0
  6  7  1  0
  7  8  2  0
  8  9  1  0
  9 10  1  0
 12 13  2  0
 12 16  1  0
 13 14  1  0
 14 15  2  0
 15 16  1  0
 15 17  1  0
 17 18  1  0
 17 19  1  0
 17 20  1  0
M  END
>  <Gold.Gold.Protein.RotatedWaterAtoms>  (92) 


>  <Gold.Id.Protein>  (92) 


>  <Gold.PLP.Chemscore.CHOScore>  (92) 
0.0000

>  <Gold.PLP.Chemscore.Hbond>  (92) 
0.9114

>  <Gold.PLP.Chemscore.Internal.Correction>  (92) 
0.0199

>  <Gold.PLP.Chemscore.Metal>  (92) 
0.0000

>  <Gold.PLP.Fitness>  (92) 
50.8879

>  <Gold.PLP.PLP>  (92) 
-51.4514

>  <Gold.PLP.ligand.clash>  (92) 
1.3909

>  <Gold.PLP.ligand.torsion>  (92) 
0.9633

>  <Gold.PLP.part.buried>  (92) 
-4.7863

>  <Gold.PLP.part.hbond>  (92) 
-3.4310

>  <Gold.PLP.part.metal>  (92) 
0.0000

>  <Gold.PLP.part.nonpolar>  (92) 
-43.1579

>  <Gold.PLP.part.repulsive>  (92) 
0.8109

>  <Gold.Protein.RotatedAtoms>  (92) 


>  <Gold.Protein.RotatedTorsions>  (92) 


>  <Gold.Protein.RotatedWaterAtoms>  (92) 


>  <Gold.Version>  (92) 
5.3.0

>  <PLP.Chemscore.CHOScore>  (92) 


>  <PLP.Chemscore.Hbond>  (92) 


>  <PLP.Chemscore.Internal.Correction>  (92) 


>  <PLP.Chemscore.Metal>  (92) 


>  <PLP.Fitness>  (92) 


>  <PLP.PLP>  (92) 


>  <PLP.ligand.clash>  (92) 


>  <PLP.ligand.torsion>  (92) 


>  <PLP.part.buried>  (92) 


>  <PLP.part.hbond>  (92) 


>  <PLP.part.metal>  (92) 


>  <PLP.part.nonpolar>  (92) 


>  <PLP.part.repulsive>  (92) 


>  <Version>  (92) 


$$$$
3092|Compound_1915|Compounds_3D_F|sdf|556|dock5|1
     RDKit          3D

 20 21  0  0  0  0  0  0  0  0999 V2000
   -8.7428  -16.9640   11.6410 N   0  0  0  0  0  0  0  0  0  0  0  0
   -8.6885  -15.6233   11.7703 C   0  0  0  0  0  0  0  0  0  0  0  0
   -9.7009  -14.9599   11.6528 O   0  0  0  0  0  0  0  0  0  0  0  0
   -7.4019  -14.9626   12.0540 C   0  0  0  0  0  0  0  0  0  0  0  0
   -7.1496  -13.6255   12.2429 C   0  0  0  0  0  0  0  0  0  0  0  0
   -5.8377  -13.5200   12.4684 O   0  0  0  0  0  0  0  0  0  0  0  0
   -5.2645  -14.5819   12.4451 N   0  0  0  0  0  0  0  0  0  0  0  0
   -6.0729  -15.5727   12.2108 C   0  0  0  0  0  0  0  0  0  0  0  0
   -5.7202  -17.0349   12.1089 C   0  0  0  0  0  0  0  0  0  0  0  0
   -4.2750  -17.2426   12.5642 C   0  0  0  0  0  0  0  0  0  0  0  0
   -8.1520  -12.5017   12.2028 C   0  0  0  0  0  0  0  0  0  0  0  0
   -9.9545  -17.5875   11.3685 C   0  0  0  0  0  0  0  0  0  0  0  0
  -10.9117  -17.9897   12.1943 N   0  0  0  0  0  0  0  0  0  0  0  0
  -11.9628  -18.5446   11.7738 N   0  0  0  0  0  0  0  0  0  0  0  0
  -12.1778  -18.7615   10.4908 C   0  0  0  0  0  0  0  0  0  0  0  0
  -10.6763  -18.0707    9.8027 S   0  0  0  0  0  0  0  0  0  0  0  0
  -13.3542  -19.4019    9.8005 C   0  0  0  0  0  0  0  0  0  0  0  0
  -12.9260  -20.5378    9.1056 F   0  0  0  0  0  0  0  0  0  0  0  0
  -14.3092  -19.7713   10.7538 F   0  0  0  0  0  0  0  0  0  0  0  0
  -13.9198  -18.4909    8.9017 F   0  0  0  0  0  0  0  0  0  0  0  0
  1  2  1  0
  1 12  1  0
  2  3  2  0
  2  4  1  0
  4  5  2  0
  4  8  1  0
  5  6  1  0
  5 11  1  0
  6  7  1  0
  7  8  2  0
  8  9  1  0
  9 10  1  0
 12 13  2  0
 12 16  1  0
 13 14  1  0
 14 15  2  0
 15 16  1  0
 15 17  1  0
 17 18  1  0
 17 19  1  0
 17 20  1  0
M  END
>  <Gold.Gold.Protein.RotatedWaterAtoms>  (93) 


>  <Gold.Id.Protein>  (93) 


>  <Gold.PLP.Chemscore.CHOScore>  (93) 
0.0000

>  <Gold.PLP.Chemscore.Hbond>  (93) 
0.9905

>  <Gold.PLP.Chemscore.Internal.Correction>  (93) 
0.0137

>  <Gold.PLP.Chemscore.Metal>  (93) 
0.0000

>  <Gold.PLP.Fitness>  (93) 
49.9093

>  <Gold.PLP.PLP>  (93) 
-48.5905

>  <Gold.PLP.ligand.clash>  (93) 
0.0000

>  <Gold.PLP.ligand.torsion>  (93) 
0.8332

>  <Gold.PLP.part.buried>  (93) 
-8.7661

>  <Gold.PLP.part.hbond>  (93) 
-1.5076

>  <Gold.PLP.part.metal>  (93) 
0.0000

>  <Gold.PLP.part.nonpolar>  (93) 
-39.2445

>  <Gold.PLP.part.repulsive>  (93) 
0.6689

>  <Gold.Protein.RotatedAtoms>  (93) 


>  <Gold.Protein.RotatedTorsions>  (93) 


>  <Gold.Protein.RotatedWaterAtoms>  (93) 


>  <Gold.Version>  (93) 
5.3.0

>  <PLP.Chemscore.CHOScore>  (93) 


>  <PLP.Chemscore.Hbond>  (93) 


>  <PLP.Chemscore.Internal.Correction>  (93) 


>  <PLP.Chemscore.Metal>  (93) 


>  <PLP.Fitness>  (93) 


>  <PLP.PLP>  (93) 


>  <PLP.ligand.clash>  (93) 


>  <PLP.ligand.torsion>  (93) 


>  <PLP.part.buried>  (93) 


>  <PLP.part.hbond>  (93) 


>  <PLP.part.metal>  (93) 


>  <PLP.part.nonpolar>  (93) 


>  <PLP.part.repulsive>  (93) 


>  <Version>  (93) 


$$$$
3093|Compound_1915|Compounds_3D_F|sdf|556|dock6|1
     RDKit          3D

 20 21  0  0  0  0  0  0  0  0999 V2000
   -8.6484  -16.9225   11.7455 N   0  0  0  0  0  0  0  0  0  0  0  0
   -8.6187  -15.5843   11.9054 C   0  0  0  0  0  0  0  0  0  0  0  0
   -9.6500  -14.9423   11.8486 O   0  0  0  0  0  0  0  0  0  0  0  0
   -7.3360  -14.9002   12.1489 C   0  0  0  0  0  0  0  0  0  0  0  0
   -7.0922  -13.5530   12.2614 C   0  0  0  0  0  0  0  0  0  0  0  0
   -5.7808  -13.4264   12.4782 O   0  0  0  0  0  0  0  0  0  0  0  0
   -5.2006  -14.4843   12.5138 N   0  0  0  0  0  0  0  0  0  0  0  0
   -6.0028  -15.4919   12.3375 C   0  0  0  0  0  0  0  0  0  0  0  0
   -5.6407  -16.9552   12.3178 C   0  0  0  0  0  0  0  0  0  0  0  0
   -4.2865  -17.1350   11.6301 C   0  0  0  0  0  0  0  0  0  0  0  0
   -8.1020  -12.4398   12.1597 C   0  0  0  0  0  0  0  0  0  0  0  0
   -9.8566  -17.5677   11.5109 C   0  0  0  0  0  0  0  0  0  0  0  0
  -11.0298  -17.4277   12.1142 N   0  0  0  0  0  0  0  0  0  0  0  0
  -12.0389  -18.1008   11.7701 N   0  0  0  0  0  0  0  0  0  0  0  0
  -11.9937  -18.9852   10.7928 C   0  0  0  0  0  0  0  0  0  0  0  0
  -10.2797  -18.8197   10.3027 S   0  0  0  0  0  0  0  0  0  0  0  0
  -13.0769  -19.8758   10.2415 C   0  0  0  0  0  0  0  0  0  0  0  0
  -13.5587  -20.7082   11.2572 F   0  0  0  0  0  0  0  0  0  0  0  0
  -14.1229  -19.0874    9.7498 F   0  0  0  0  0  0  0  0  0  0  0  0
  -12.5550  -20.6580    9.2055 F   0  0  0  0  0  0  0  0  0  0  0  0
  1  2  1  0
  1 12  1  0
  2  3  2  0
  2  4  1  0
  4  5  2  0
  4  8  1  0
  5  6  1  0
  5 11  1  0
  6  7  1  0
  7  8  2  0
  8  9  1  0
  9 10  1  0
 12 13  2  0
 12 16  1  0
 13 14  1  0
 14 15  2  0
 15 16  1  0
 15 17  1  0
 17 18  1  0
 17 19  1  0
 17 20  1  0
M  END
>  <Gold.Gold.Protein.RotatedWaterAtoms>  (94) 


>  <Gold.Id.Protein>  (94) 


>  <Gold.PLP.Chemscore.CHOScore>  (94) 
0.0000

>  <Gold.PLP.Chemscore.Hbond>  (94) 
1.3095

>  <Gold.PLP.Chemscore.Internal.Correction>  (94) 
0.0137

>  <Gold.PLP.Chemscore.Metal>  (94) 
0.0000

>  <Gold.PLP.Fitness>  (94) 
49.0548

>  <Gold.PLP.PLP>  (94) 
-46.5423

>  <Gold.PLP.ligand.clash>  (94) 
0.0000

>  <Gold.PLP.ligand.torsion>  (94) 
0.7148

>  <Gold.PLP.part.buried>  (94) 
-9.7776

>  <Gold.PLP.part.hbond>  (94) 
-3.1043

>  <Gold.PLP.part.metal>  (94) 
0.0000

>  <Gold.PLP.part.nonpolar>  (94) 
-35.1322

>  <Gold.PLP.part.repulsive>  (94) 
0.7092

>  <Gold.Protein.RotatedAtoms>  (94) 


>  <Gold.Protein.RotatedTorsions>  (94) 


>  <Gold.Protein.RotatedWaterAtoms>  (94) 


>  <Gold.Version>  (94) 
5.3.0

>  <PLP.Chemscore.CHOScore>  (94) 


>  <PLP.Chemscore.Hbond>  (94) 


>  <PLP.Chemscore.Internal.Correction>  (94) 


>  <PLP.Chemscore.Metal>  (94) 


>  <PLP.Fitness>  (94) 


>  <PLP.PLP>  (94) 


>  <PLP.ligand.clash>  (94) 


>  <PLP.ligand.torsion>  (94) 


>  <PLP.part.buried>  (94) 


>  <PLP.part.hbond>  (94) 


>  <PLP.part.metal>  (94) 


>  <PLP.part.nonpolar>  (94) 


>  <PLP.part.repulsive>  (94) 


>  <Version>  (94) 


$$$$
3094|Compound_1915|Compounds_3D_F|sdf|556|dock7|1
     RDKit          3D

 20 21  0  0  0  0  0  0  0  0999 V2000
   -8.0567  -15.6234   11.9207 N   0  0  0  0  0  0  0  0  0  0  0  0
   -8.3140  -14.3095   12.0777 C   0  0  0  0  0  0  0  0  0  0  0  0
   -9.4593  -13.9279   12.2252 O   0  0  0  0  0  0  0  0  0  0  0  0
   -7.2070  -13.3365   12.0707 C   0  0  0  0  0  0  0  0  0  0  0  0
   -5.8652  -13.5651   12.2560 C   0  0  0  0  0  0  0  0  0  0  0  0
   -5.2660  -12.3756   12.1621 O   0  0  0  0  0  0  0  0  0  0  0  0
   -6.0362  -11.4708   11.9495 N   0  0  0  0  0  0  0  0  0  0  0  0
   -7.2659  -11.8824   11.8577 C   0  0  0  0  0  0  0  0  0  0  0  0
   -8.4926  -11.0449   11.6003 C   0  0  0  0  0  0  0  0  0  0  0  0
   -8.1073   -9.5648   11.6000 C   0  0  0  0  0  0  0  0  0  0  0  0
   -5.2013  -14.8924   12.5144 C   0  0  0  0  0  0  0  0  0  0  0  0
   -9.1003  -16.5411   11.9221 C   0  0  0  0  0  0  0  0  0  0  0  0
  -10.3445  -16.4173   12.3654 N   0  0  0  0  0  0  0  0  0  0  0  0
  -11.1754  -17.3624   12.2869 N   0  0  0  0  0  0  0  0  0  0  0  0
  -10.8626  -18.5312   11.7622 C   0  0  0  0  0  0  0  0  0  0  0  0
   -9.1551  -18.2261   11.3189 S   0  0  0  0  0  0  0  0  0  0  0  0
  -11.7039  -19.7681   11.5813 C   0  0  0  0  0  0  0  0  0  0  0  0
  -11.1715  -20.8108   12.3466 F   0  0  0  0  0  0  0  0  0  0  0  0
  -13.0135  -19.5059   11.9981 F   0  0  0  0  0  0  0  0  0  0  0  0
  -11.7084  -20.1355   10.2312 F   0  0  0  0  0  0  0  0  0  0  0  0
  1  2  1  0
  1 12  1  0
  2  3  2  0
  2  4  1  0
  4  5  2  0
  4  8  1  0
  5  6  1  0
  5 11  1  0
  6  7  1  0
  7  8  2  0
  8  9  1  0
  9 10  1  0
 12 13  2  0
 12 16  1  0
 13 14  1  0
 14 15  2  0
 15 16  1  0
 15 17  1  0
 17 18  1  0
 17 19  1  0
 17 20  1  0
M  END
>  <Gold.Gold.Protein.RotatedWaterAtoms>  (95) 


>  <Gold.Id.Protein>  (95) 


>  <Gold.PLP.Chemscore.CHOScore>  (95) 
0.0000

>  <Gold.PLP.Chemscore.Hbond>  (95) 
1.5168

>  <Gold.PLP.Chemscore.Internal.Correction>  (95) 
0.0054

>  <Gold.PLP.Chemscore.Metal>  (95) 
0.0000

>  <Gold.PLP.Fitness>  (95) 
57.5436

>  <Gold.PLP.PLP>  (95) 
-53.5968

>  <Gold.PLP.ligand.clash>  (95) 
0.0000

>  <Gold.PLP.ligand.torsion>  (95) 
0.3045

>  <Gold.PLP.part.buried>  (95) 
-7.6901

>  <Gold.PLP.part.hbond>  (95) 
-4.3220

>  <Gold.PLP.part.metal>  (95) 
0.0000

>  <Gold.PLP.part.nonpolar>  (95) 
-41.8579

>  <Gold.PLP.part.repulsive>  (95) 
0.9695

>  <Gold.Protein.RotatedAtoms>  (95) 


>  <Gold.Protein.RotatedTorsions>  (95) 


>  <Gold.Protein.RotatedWaterAtoms>  (95) 


>  <Gold.Version>  (95) 
5.3.0

>  <PLP.Chemscore.CHOScore>  (95) 


>  <PLP.Chemscore.Hbond>  (95) 


>  <PLP.Chemscore.Internal.Correction>  (95) 


>  <PLP.Chemscore.Metal>  (95) 


>  <PLP.Fitness>  (95) 


>  <PLP.PLP>  (95) 


>  <PLP.ligand.clash>  (95) 


>  <PLP.ligand.torsion>  (95) 


>  <PLP.part.buried>  (95) 


>  <PLP.part.hbond>  (95) 


>  <PLP.part.metal>  (95) 


>  <PLP.part.nonpolar>  (95) 


>  <PLP.part.repulsive>  (95) 


>  <Version>  (95) 


$$$$
3095|Compound_1915|Compounds_3D_F|sdf|556|dock8|1
     RDKit          3D

 20 21  0  0  0  0  0  0  0  0999 V2000
   -8.6665  -16.6555   11.4539 N   0  0  0  0  0  0  0  0  0  0  0  0
   -8.6392  -15.3868   11.9086 C   0  0  0  0  0  0  0  0  0  0  0  0
   -9.6800  -14.7995   12.1342 O   0  0  0  0  0  0  0  0  0  0  0  0
   -7.3479  -14.7124   12.1321 C   0  0  0  0  0  0  0  0  0  0  0  0
   -7.0820  -13.3654   12.1770 C   0  0  0  0  0  0  0  0  0  0  0  0
   -5.7713  -13.2495   12.4034 O   0  0  0  0  0  0  0  0  0  0  0  0
   -5.2100  -14.3135   12.5017 N   0  0  0  0  0  0  0  0  0  0  0  0
   -6.0274  -15.3155   12.3683 C   0  0  0  0  0  0  0  0  0  0  0  0
   -5.6906  -16.7836   12.4299 C   0  0  0  0  0  0  0  0  0  0  0  0
   -4.4479  -17.0565   11.5811 C   0  0  0  0  0  0  0  0  0  0  0  0
   -8.0711  -12.2424   12.0043 C   0  0  0  0  0  0  0  0  0  0  0  0
   -9.8836  -17.2905   11.2380 C   0  0  0  0  0  0  0  0  0  0  0  0
  -10.8502  -17.5956   12.0938 N   0  0  0  0  0  0  0  0  0  0  0  0
  -11.9051  -18.1793   11.7248 N   0  0  0  0  0  0  0  0  0  0  0  0
  -12.1149  -18.5243   10.4693 C   0  0  0  0  0  0  0  0  0  0  0  0
  -10.6015  -17.9238    9.7248 S   0  0  0  0  0  0  0  0  0  0  0  0
  -13.2944  -19.2192    9.8399 C   0  0  0  0  0  0  0  0  0  0  0  0
  -14.2254  -19.5484   10.8306 F   0  0  0  0  0  0  0  0  0  0  0  0
  -13.8915  -18.3681    8.9038 F   0  0  0  0  0  0  0  0  0  0  0  0
  -12.8614  -20.3860    9.2006 F   0  0  0  0  0  0  0  0  0  0  0  0
  1  2  1  0
  1 12  1  0
  2  3  2  0
  2  4  1  0
  4  5  2  0
  4  8  1  0
  5  6  1  0
  5 11  1  0
  6  7  1  0
  7  8  2  0
  8  9  1  0
  9 10  1  0
 12 13  2  0
 12 16  1  0
 13 14  1  0
 14 15  2  0
 15 16  1  0
 15 17  1  0
 17 18  1  0
 17 19  1  0
 17 20  1  0
M  END
>  <Gold.Gold.Protein.RotatedWaterAtoms>  (96) 


>  <Gold.Id.Protein>  (96) 


>  <Gold.PLP.Chemscore.CHOScore>  (96) 
0.0000

>  <Gold.PLP.Chemscore.Hbond>  (96) 
1.2025

>  <Gold.PLP.Chemscore.Internal.Correction>  (96) 
0.0054

>  <Gold.PLP.Chemscore.Metal>  (96) 
0.0000

>  <Gold.PLP.Fitness>  (96) 
51.4166

>  <Gold.PLP.PLP>  (96) 
-49.7726

>  <Gold.PLP.ligand.clash>  (96) 
0.0000

>  <Gold.PLP.ligand.torsion>  (96) 
0.9844

>  <Gold.PLP.part.buried>  (96) 
-7.5328

>  <Gold.PLP.part.hbond>  (96) 
-3.3366

>  <Gold.PLP.part.metal>  (96) 
0.0000

>  <Gold.PLP.part.nonpolar>  (96) 
-39.2679

>  <Gold.PLP.part.repulsive>  (96) 
0.6886

>  <Gold.Protein.RotatedAtoms>  (96) 


>  <Gold.Protein.RotatedTorsions>  (96) 


>  <Gold.Protein.RotatedWaterAtoms>  (96) 


>  <Gold.Version>  (96) 
5.3.0

>  <PLP.Chemscore.CHOScore>  (96) 


>  <PLP.Chemscore.Hbond>  (96) 


>  <PLP.Chemscore.Internal.Correction>  (96) 


>  <PLP.Chemscore.Metal>  (96) 


>  <PLP.Fitness>  (96) 


>  <PLP.PLP>  (96) 


>  <PLP.ligand.clash>  (96) 


>  <PLP.ligand.torsion>  (96) 


>  <PLP.part.buried>  (96) 


>  <PLP.part.hbond>  (96) 


>  <PLP.part.metal>  (96) 


>  <PLP.part.nonpolar>  (96) 


>  <PLP.part.repulsive>  (96) 


>  <Version>  (96) 


$$$$
3096|Compound_1915|Compounds_3D_F|sdf|556|dock9|1
     RDKit          3D

 20 21  0  0  0  0  0  0  0  0999 V2000
   -8.2682  -15.8140   11.9309 N   0  0  0  0  0  0  0  0  0  0  0  0
   -8.4399  -14.4819   12.0452 C   0  0  0  0  0  0  0  0  0  0  0  0
   -9.5612  -14.0185   12.1279 O   0  0  0  0  0  0  0  0  0  0  0  0
   -7.2682  -13.5880   12.0699 C   0  0  0  0  0  0  0  0  0  0  0  0
   -5.9464  -13.9141   12.2524 C   0  0  0  0  0  0  0  0  0  0  0  0
   -5.2660  -12.7667   12.1951 O   0  0  0  0  0  0  0  0  0  0  0  0
   -5.9707  -11.8051   12.0066 N   0  0  0  0  0  0  0  0  0  0  0  0
   -7.2255  -12.1278   11.8991 C   0  0  0  0  0  0  0  0  0  0  0  0
   -8.3901  -11.2004   11.6625 C   0  0  0  0  0  0  0  0  0  0  0  0
   -7.8956   -9.7531   11.6597 C   0  0  0  0  0  0  0  0  0  0  0  0
   -5.3771  -15.2911   12.4741 C   0  0  0  0  0  0  0  0  0  0  0  0
   -9.3725  -16.6572   11.9024 C   0  0  0  0  0  0  0  0  0  0  0  0
  -10.5770  -16.5039   12.4369 N   0  0  0  0  0  0  0  0  0  0  0  0
  -11.4760  -17.3790   12.3123 N   0  0  0  0  0  0  0  0  0  0  0  0
  -11.2779  -18.4999   11.6462 C   0  0  0  0  0  0  0  0  0  0  0  0
   -9.5817  -18.2577   11.1273 S   0  0  0  0  0  0  0  0  0  0  0  0
  -12.2141  -19.6524   11.3894 C   0  0  0  0  0  0  0  0  0  0  0  0
  -13.4528  -19.3888   11.9834 F   0  0  0  0  0  0  0  0  0  0  0  0
  -12.3840  -19.8162   10.0105 F   0  0  0  0  0  0  0  0  0  0  0  0
  -11.6743  -20.8220   11.9355 F   0  0  0  0  0  0  0  0  0  0  0  0
  1  2  1  0
  1 12  1  0
  2  3  2  0
  2  4  1  0
  4  5  2  0
  4  8  1  0
  5  6  1  0
  5 11  1  0
  6  7  1  0
  7  8  2  0
  8  9  1  0
  9 10  1  0
 12 13  2  0
 12 16  1  0
 13 14  1  0
 14 15  2  0
 15 16  1  0
 15 17  1  0
 17 18  1  0
 17 19  1  0
 17 20  1  0
M  END
>  <Gold.Gold.Protein.RotatedWaterAtoms>  (97) 


>  <Gold.Id.Protein>  (97) 


>  <Gold.PLP.Chemscore.CHOScore>  (97) 
0.0000

>  <Gold.PLP.Chemscore.Hbond>  (97) 
1.6500

>  <Gold.PLP.Chemscore.Internal.Correction>  (97) 
0.0054

>  <Gold.PLP.Chemscore.Metal>  (97) 
0.0000

>  <Gold.PLP.Fitness>  (97) 
56.5426

>  <Gold.PLP.PLP>  (97) 
-52.5487

>  <Gold.PLP.ligand.clash>  (97) 
0.4064

>  <Gold.PLP.ligand.torsion>  (97) 
0.2776

>  <Gold.PLP.part.buried>  (97) 
-6.7467

>  <Gold.PLP.part.hbond>  (97) 
-4.5902

>  <Gold.PLP.part.metal>  (97) 
0.0000

>  <Gold.PLP.part.nonpolar>  (97) 
-40.7685

>  <Gold.PLP.part.repulsive>  (97) 
0.9544

>  <Gold.Protein.RotatedAtoms>  (97) 


>  <Gold.Protein.RotatedTorsions>  (97) 


>  <Gold.Protein.RotatedWaterAtoms>  (97) 


>  <Gold.Version>  (97) 
5.3.0

>  <PLP.Chemscore.CHOScore>  (97) 


>  <PLP.Chemscore.Hbond>  (97) 


>  <PLP.Chemscore.Internal.Correction>  (97) 


>  <PLP.Chemscore.Metal>  (97) 


>  <PLP.Fitness>  (97) 


>  <PLP.PLP>  (97) 


>  <PLP.ligand.clash>  (97) 


>  <PLP.ligand.torsion>  (97) 


>  <PLP.part.buried>  (97) 


>  <PLP.part.hbond>  (97) 


>  <PLP.part.metal>  (97) 


>  <PLP.part.nonpolar>  (97) 


>  <PLP.part.repulsive>  (97) 


>  <Version>  (97) 


$$$$
3097|Compound_1916|Compounds_3D_F|sdf|557|dock1|1
     RDKit          3D

 19 20  0  0  0  0  0  0  0  0999 V2000
  -12.7983  -19.2404   12.7392 O   0  0  0  0  0  0  0  0  0  0  0  0
  -11.8864  -18.7886   11.8449 C   0  0  0  0  0  0  0  0  0  0  0  0
  -11.8533  -19.3218   10.6342 N   0  0  0  0  0  0  0  0  0  0  0  0
  -10.9763  -18.9078    9.7315 C   0  0  0  0  0  0  0  0  0  0  0  0
  -10.0863  -17.9045   10.0660 C   0  0  0  0  0  0  0  0  0  0  0  0
   -8.6799  -17.2123    8.6755 I   0  0  0  0  0  0  0  0  0  0  0  0
  -10.1466  -17.3624   11.3508 C   0  0  0  0  0  0  0  0  0  0  0  0
  -11.0555  -17.8237   12.2027 N   0  0  0  0  0  0  0  0  0  0  0  0
   -9.2723  -16.3518   11.7316 N   0  0  0  0  0  0  0  0  0  0  0  0
   -7.9416  -16.5311   11.6129 C   0  0  0  0  0  0  0  0  0  0  0  0
   -7.5067  -17.5778   11.1720 O   0  0  0  0  0  0  0  0  0  0  0  0
   -7.0146  -15.4592   12.0160 C   0  0  0  0  0  0  0  0  0  0  0  0
   -5.7027  -15.5638   12.4095 C   0  0  0  0  0  0  0  0  0  0  0  0
   -5.2894  -14.3231   12.6732 O   0  0  0  0  0  0  0  0  0  0  0  0
   -6.1463  -13.4902   12.4999 N   0  0  0  0  0  0  0  0  0  0  0  0
   -7.2639  -14.0115   12.0916 C   0  0  0  0  0  0  0  0  0  0  0  0
   -8.5475  -13.2868   11.7727 C   0  0  0  0  0  0  0  0  0  0  0  0
   -8.2608  -11.7938   11.6025 C   0  0  0  0  0  0  0  0  0  0  0  0
   -4.8911  -16.8294   12.5215 C   0  0  0  0  0  0  0  0  0  0  0  0
  1  2  1  0
  2  3  2  0
  2  8  1  0
  3  4  1  0
  4  5  2  0
  5  6  1  0
  5  7  1  0
  7  8  2  0
  7  9  1  0
  9 10  1  0
 10 11  2  0
 10 12  1  0
 12 13  2  0
 12 16  1  0
 13 14  1  0
 13 19  1  0
 14 15  1  0
 15 16  2  0
 16 17  1  0
 17 18  1  0
M  END
>  <Gold.Gold.Protein.RotatedWaterAtoms>  (98) 


>  <Gold.Id.Protein>  (98) 


>  <Gold.PLP.Chemscore.CHOScore>  (98) 
0.0000

>  <Gold.PLP.Chemscore.Hbond>  (98) 
0.9500

>  <Gold.PLP.Chemscore.Internal.Correction>  (98) 
0.3334

>  <Gold.PLP.Chemscore.Metal>  (98) 
0.0000

>  <Gold.PLP.Fitness>  (98) 
42.6187

>  <Gold.PLP.PLP>  (98) 
-41.3761

>  <Gold.PLP.ligand.clash>  (98) 
0.0000

>  <Gold.PLP.ligand.torsion>  (98) 
0.9704

>  <Gold.PLP.part.buried>  (98) 
-7.1518

>  <Gold.PLP.part.hbond>  (98) 
-3.5936

>  <Gold.PLP.part.metal>  (98) 
0.0000

>  <Gold.PLP.part.nonpolar>  (98) 
-31.3749

>  <Gold.PLP.part.repulsive>  (98) 
0.5624

>  <Gold.Protein.RotatedAtoms>  (98) 


>  <Gold.Protein.RotatedTorsions>  (98) 


>  <Gold.Protein.RotatedWaterAtoms>  (98) 


>  <Gold.Version>  (98) 
5.3.0

>  <PLP.Chemscore.CHOScore>  (98) 


>  <PLP.Chemscore.Hbond>  (98) 


>  <PLP.Chemscore.Internal.Correction>  (98) 


>  <PLP.Chemscore.Metal>  (98) 


>  <PLP.Fitness>  (98) 


>  <PLP.PLP>  (98) 


>  <PLP.ligand.clash>  (98) 


>  <PLP.ligand.torsion>  (98) 


>  <PLP.part.buried>  (98) 


>  <PLP.part.hbond>  (98) 


>  <PLP.part.metal>  (98) 


>  <PLP.part.nonpolar>  (98) 


>  <PLP.part.repulsive>  (98) 


>  <Version>  (98) 


$$$$
3098|Compound_1916|Compounds_3D_F|sdf|557|dock2|1
     RDKit          3D

 19 20  0  0  0  0  0  0  0  0999 V2000
  -12.8064  -18.2524   12.5053 O   0  0  0  0  0  0  0  0  0  0  0  0
  -11.6840  -18.4064   11.7623 C   0  0  0  0  0  0  0  0  0  0  0  0
  -11.6578  -19.3361   10.8208 N   0  0  0  0  0  0  0  0  0  0  0  0
  -10.5792  -19.5181   10.0734 C   0  0  0  0  0  0  0  0  0  0  0  0
   -9.4691  -18.7223   10.2855 C   0  0  0  0  0  0  0  0  0  0  0  0
   -7.7381  -18.9680    9.1306 I   0  0  0  0  0  0  0  0  0  0  0  0
   -9.5281  -17.7507   11.2858 C   0  0  0  0  0  0  0  0  0  0  0  0
  -10.6448  -17.6215   11.9935 N   0  0  0  0  0  0  0  0  0  0  0  0
   -8.4367  -16.9274   11.5345 N   0  0  0  0  0  0  0  0  0  0  0  0
   -8.6278  -15.6303   11.8474 C   0  0  0  0  0  0  0  0  0  0  0  0
   -9.7561  -15.1810   11.9121 O   0  0  0  0  0  0  0  0  0  0  0  0
   -7.4705  -14.7576   12.1119 C   0  0  0  0  0  0  0  0  0  0  0  0
   -7.3919  -13.3889   12.0257 C   0  0  0  0  0  0  0  0  0  0  0  0
   -6.1422  -13.0626   12.3596 O   0  0  0  0  0  0  0  0  0  0  0  0
   -5.4584  -14.0195   12.6328 N   0  0  0  0  0  0  0  0  0  0  0  0
   -6.1148  -15.1365   12.5387 C   0  0  0  0  0  0  0  0  0  0  0  0
   -5.5942  -16.5273   12.8015 C   0  0  0  0  0  0  0  0  0  0  0  0
   -4.2519  -16.7114   12.0912 C   0  0  0  0  0  0  0  0  0  0  0  0
   -8.4980  -12.4433   11.6316 C   0  0  0  0  0  0  0  0  0  0  0  0
  1  2  1  0
  2  3  2  0
  2  8  1  0
  3  4  1  0
  4  5  2  0
  5  6  1  0
  5  7  1  0
  7  8  2  0
  7  9  1  0
  9 10  1  0
 10 11  2  0
 10 12  1  0
 12 13  2  0
 12 16  1  0
 13 14  1  0
 13 19  1  0
 14 15  1  0
 15 16  2  0
 16 17  1  0
 17 18  1  0
M  END
>  <Gold.Gold.Protein.RotatedWaterAtoms>  (99) 


>  <Gold.Id.Protein>  (99) 


>  <Gold.PLP.Chemscore.CHOScore>  (99) 
0.0000

>  <Gold.PLP.Chemscore.Hbond>  (99) 
1.0588

>  <Gold.PLP.Chemscore.Internal.Correction>  (99) 
0.3334

>  <Gold.PLP.Chemscore.Metal>  (99) 
0.0000

>  <Gold.PLP.Fitness>  (99) 
45.3307

>  <Gold.PLP.PLP>  (99) 
-43.1124

>  <Gold.PLP.ligand.clash>  (99) 
0.0000

>  <Gold.PLP.ligand.torsion>  (99) 
0.6458

>  <Gold.PLP.part.buried>  (99) 
-10.4733

>  <Gold.PLP.part.hbond>  (99) 
-2.1362

>  <Gold.PLP.part.metal>  (99) 
0.0000

>  <Gold.PLP.part.nonpolar>  (99) 
-30.5912

>  <Gold.PLP.part.repulsive>  (99) 
0.6652

>  <Gold.Protein.RotatedAtoms>  (99) 


>  <Gold.Protein.RotatedTorsions>  (99) 


>  <Gold.Protein.RotatedWaterAtoms>  (99) 


>  <Gold.Version>  (99) 
5.3.0

>  <PLP.Chemscore.CHOScore>  (99) 


>  <PLP.Chemscore.Hbond>  (99) 


>  <PLP.Chemscore.Internal.Correction>  (99) 


>  <PLP.Chemscore.Metal>  (99) 


>  <PLP.Fitness>  (99) 


>  <PLP.PLP>  (99) 


>  <PLP.ligand.clash>  (99) 


>  <PLP.ligand.torsion>  (99) 


>  <PLP.part.buried>  (99) 


>  <PLP.part.hbond>  (99) 


>  <PLP.part.metal>  (99) 


>  <PLP.part.nonpolar>  (99) 


>  <PLP.part.repulsive>  (99) 


>  <Version>  (99) 


$$$$
3099|Compound_1916|Compounds_3D_F|sdf|557|dock3|1
     RDKit          3D

 19 20  0  0  0  0  0  0  0  0999 V2000
  -12.7421  -19.7121   13.0436 O   0  0  0  0  0  0  0  0  0  0  0  0
  -11.9211  -19.1524   12.1226 C   0  0  0  0  0  0  0  0  0  0  0  0
  -11.9380  -19.6117   10.8816 N   0  0  0  0  0  0  0  0  0  0  0  0
  -11.1501  -19.0914    9.9522 C   0  0  0  0  0  0  0  0  0  0  0  0
  -10.3010  -18.0545   10.2906 C   0  0  0  0  0  0  0  0  0  0  0  0
   -9.0354  -17.1952    8.8586 I   0  0  0  0  0  0  0  0  0  0  0  0
  -10.3068  -17.5924   11.6076 C   0  0  0  0  0  0  0  0  0  0  0  0
  -11.1269  -18.1589   12.4856 N   0  0  0  0  0  0  0  0  0  0  0  0
   -9.4705  -16.5520   11.9936 N   0  0  0  0  0  0  0  0  0  0  0  0
   -8.1429  -16.6379   11.7768 C   0  0  0  0  0  0  0  0  0  0  0  0
   -7.6775  -17.6265   11.2428 O   0  0  0  0  0  0  0  0  0  0  0  0
   -7.2563  -15.5343   12.1854 C   0  0  0  0  0  0  0  0  0  0  0  0
   -5.9181  -15.5787   12.4917 C   0  0  0  0  0  0  0  0  0  0  0  0
   -5.5622  -14.3311   12.8025 O   0  0  0  0  0  0  0  0  0  0  0  0
   -6.4757  -13.5449   12.7308 N   0  0  0  0  0  0  0  0  0  0  0  0
   -7.5847  -14.1113   12.3610 C   0  0  0  0  0  0  0  0  0  0  0  0
   -8.9263  -13.4513   12.1638 C   0  0  0  0  0  0  0  0  0  0  0  0
   -8.7565  -12.2002   11.3000 C   0  0  0  0  0  0  0  0  0  0  0  0
   -5.0282  -16.7956   12.4796 C   0  0  0  0  0  0  0  0  0  0  0  0
  1  2  1  0
  2  3  2  0
  2  8  1  0
  3  4  1  0
  4  5  2  0
  5  6  1  0
  5  7  1  0
  7  8  2  0
  7  9  1  0
  9 10  1  0
 10 11  2  0
 10 12  1  0
 12 13  2  0
 12 16  1  0
 13 14  1  0
 13 19  1  0
 14 15  1  0
 15 16  2  0
 16 17  1  0
 17 18  1  0
M  END
>  <Gold.Gold.Protein.RotatedWaterAtoms>  (100) 


>  <Gold.Id.Protein>  (100) 


>  <Gold.PLP.Chemscore.CHOScore>  (100) 
0.0000

>  <Gold.PLP.Chemscore.Hbond>  (100) 
1.0000

>  <Gold.PLP.Chemscore.Internal.Correction>  (100) 
0.3334

>  <Gold.PLP.Chemscore.Metal>  (100) 
0.0000

>  <Gold.PLP.Fitness>  (100) 
41.5741

>  <Gold.PLP.PLP>  (100) 
-40.0134

>  <Gold.PLP.ligand.clash>  (100) 
0.0000

>  <Gold.PLP.ligand.torsion>  (100) 
0.8863

>  <Gold.PLP.part.buried>  (100) 
-6.4576

>  <Gold.PLP.part.hbond>  (100) 
-2.6593

>  <Gold.PLP.part.metal>  (100) 
0.0000

>  <Gold.PLP.part.nonpolar>  (100) 
-30.8723

>  <Gold.PLP.part.repulsive>  (100) 
0.5810

>  <Gold.Protein.RotatedAtoms>  (100) 


>  <Gold.Protein.RotatedTorsions>  (100) 


>  <Gold.Protein.RotatedWaterAtoms>  (100) 


>  <Gold.Version>  (100) 
5.3.0

>  <PLP.Chemscore.CHOScore>  (100) 


>  <PLP.Chemscore.Hbond>  (100) 


>  <PLP.Chemscore.Internal.Correction>  (100) 


>  <PLP.Chemscore.Metal>  (100) 


>  <PLP.Fitness>  (100) 


>  <PLP.PLP>  (100) 


>  <PLP.ligand.clash>  (100) 


>  <PLP.ligand.torsion>  (100) 


>  <PLP.part.buried>  (100) 


>  <PLP.part.hbond>  (100) 


>  <PLP.part.metal>  (100) 


>  <PLP.part.nonpolar>  (100) 


>  <PLP.part.repulsive>  (100) 


>  <Version>  (100) 


$$$$
3100|Compound_1916|Compounds_3D_F|sdf|557|dock4|1
     RDKit          3D

 19 20  0  0  0  0  0  0  0  0999 V2000
  -13.0934  -18.1892   12.5012 O   0  0  0  0  0  0  0  0  0  0  0  0
  -11.9075  -18.4105   11.8845 C   0  0  0  0  0  0  0  0  0  0  0  0
  -11.8187  -19.3813   10.9895 N   0  0  0  0  0  0  0  0  0  0  0  0
  -10.6768  -19.6295   10.3652 C   0  0  0  0  0  0  0  0  0  0  0  0
   -9.5667  -18.8596   10.6577 C   0  0  0  0  0  0  0  0  0  0  0  0
   -7.7371  -19.2095    9.6980 I   0  0  0  0  0  0  0  0  0  0  0  0
   -9.6926  -17.8433   11.6060 C   0  0  0  0  0  0  0  0  0  0  0  0
  -10.8702  -17.6486   12.1892 N   0  0  0  0  0  0  0  0  0  0  0  0
   -8.6038  -17.0439   11.9318 N   0  0  0  0  0  0  0  0  0  0  0  0
   -8.6551  -15.7142   11.7169 C   0  0  0  0  0  0  0  0  0  0  0  0
   -9.6551  -15.2145   11.2378 O   0  0  0  0  0  0  0  0  0  0  0  0
   -7.5008  -14.8665   12.0631 C   0  0  0  0  0  0  0  0  0  0  0  0
   -7.4012  -13.4971   12.0248 C   0  0  0  0  0  0  0  0  0  0  0  0
   -6.1647  -13.1989   12.4271 O   0  0  0  0  0  0  0  0  0  0  0  0
   -5.5064  -14.1733   12.7010 N   0  0  0  0  0  0  0  0  0  0  0  0
   -6.1715  -15.2775   12.5404 C   0  0  0  0  0  0  0  0  0  0  0  0
   -5.6812  -16.6831   12.7823 C   0  0  0  0  0  0  0  0  0  0  0  0
   -4.3926  -16.9163   11.9915 C   0  0  0  0  0  0  0  0  0  0  0  0
   -8.4756  -12.5241   11.6102 C   0  0  0  0  0  0  0  0  0  0  0  0
  1  2  1  0
  2  3  2  0
  2  8  1  0
  3  4  1  0
  4  5  2  0
  5  6  1  0
  5  7  1  0
  7  8  2  0
  7  9  1  0
  9 10  1  0
 10 11  2  0
 10 12  1  0
 12 13  2  0
 12 16  1  0
 13 14  1  0
 13 19  1  0
 14 15  1  0
 15 16  2  0
 16 17  1  0
 17 18  1  0
M  END
>  <Gold.Gold.Protein.RotatedWaterAtoms>  (101) 


>  <Gold.Id.Protein>  (101) 


>  <Gold.PLP.Chemscore.CHOScore>  (101) 
0.0000

>  <Gold.PLP.Chemscore.Hbond>  (101) 
1.3949

>  <Gold.PLP.Chemscore.Internal.Correction>  (101) 
0.3334

>  <Gold.PLP.Chemscore.Metal>  (101) 
0.0000

>  <Gold.PLP.Fitness>  (101) 
45.4805

>  <Gold.PLP.PLP>  (101) 
-42.2033

>  <Gold.PLP.ligand.clash>  (101) 
0.0000

>  <Gold.PLP.ligand.torsion>  (101) 
0.6204

>  <Gold.PLP.part.buried>  (101) 
-9.7990

>  <Gold.PLP.part.hbond>  (101) 
-1.7541

>  <Gold.PLP.part.metal>  (101) 
0.0000

>  <Gold.PLP.part.nonpolar>  (101) 
-31.4351

>  <Gold.PLP.part.repulsive>  (101) 
0.6916

>  <Gold.Protein.RotatedAtoms>  (101) 


>  <Gold.Protein.RotatedTorsions>  (101) 


>  <Gold.Protein.RotatedWaterAtoms>  (101) 


>  <Gold.Version>  (101) 
5.3.0

>  <PLP.Chemscore.CHOScore>  (101) 


>  <PLP.Chemscore.Hbond>  (101) 


>  <PLP.Chemscore.Internal.Correction>  (101) 


>  <PLP.Chemscore.Metal>  (101) 


>  <PLP.Fitness>  (101) 


>  <PLP.PLP>  (101) 


>  <PLP.ligand.clash>  (101) 


>  <PLP.ligand.torsion>  (101) 


>  <PLP.part.buried>  (101) 


>  <PLP.part.hbond>  (101) 


>  <PLP.part.metal>  (101) 


>  <PLP.part.nonpolar>  (101) 


>  <PLP.part.repulsive>  (101) 


>  <Version>  (101) 


$$$$
3101|Compound_1916|Compounds_3D_F|sdf|557|dock5|1
     RDKit          3D

 19 20  0  0  0  0  0  0  0  0999 V2000
  -10.2855  -14.9326   12.7389 O   0  0  0  0  0  0  0  0  0  0  0  0
   -9.8613  -16.1091   12.2177 C   0  0  0  0  0  0  0  0  0  0  0  0
   -8.7292  -16.1388   11.5330 N   0  0  0  0  0  0  0  0  0  0  0  0
   -8.2809  -17.2693   11.0074 C   0  0  0  0  0  0  0  0  0  0  0  0
   -9.0111  -18.4301   11.1803 C   0  0  0  0  0  0  0  0  0  0  0  0
   -8.3461  -20.2448   10.3707 I   0  0  0  0  0  0  0  0  0  0  0  0
  -10.2007  -18.3659   11.9075 C   0  0  0  0  0  0  0  0  0  0  0  0
  -10.5867  -17.1983   12.4097 N   0  0  0  0  0  0  0  0  0  0  0  0
  -10.9675  -19.5074   12.1073 N   0  0  0  0  0  0  0  0  0  0  0  0
  -12.2901  -19.4853   11.8477 C   0  0  0  0  0  0  0  0  0  0  0  0
  -12.8116  -18.4658   11.4382 O   0  0  0  0  0  0  0  0  0  0  0  0
  -13.1029  -20.6959   12.0589 C   0  0  0  0  0  0  0  0  0  0  0  0
  -12.9600  -21.6672   13.0195 C   0  0  0  0  0  0  0  0  0  0  0  0
  -13.9305  -22.5564   12.8020 O   0  0  0  0  0  0  0  0  0  0  0  0
  -14.6335  -22.2719   11.8626 N   0  0  0  0  0  0  0  0  0  0  0  0
  -14.2717  -21.1603   11.2961 C   0  0  0  0  0  0  0  0  0  0  0  0
  -14.9089  -20.4931   10.1030 C   0  0  0  0  0  0  0  0  0  0  0  0
  -13.8375  -20.1979    9.0518 C   0  0  0  0  0  0  0  0  0  0  0  0
  -11.9139  -21.7187   14.1040 C   0  0  0  0  0  0  0  0  0  0  0  0
  1  2  1  0
  2  3  2  0
  2  8  1  0
  3  4  1  0
  4  5  2  0
  5  6  1  0
  5  7  1  0
  7  8  2  0
  7  9  1  0
  9 10  1  0
 10 11  2  0
 10 12  1  0
 12 13  2  0
 12 16  1  0
 13 14  1  0
 13 19  1  0
 14 15  1  0
 15 16  2  0
 16 17  1  0
 17 18  1  0
M  END
>  <Gold.Gold.Protein.RotatedWaterAtoms>  (102) 


>  <Gold.Id.Protein>  (102) 


>  <Gold.PLP.Chemscore.CHOScore>  (102) 
0.0000

>  <Gold.PLP.Chemscore.Hbond>  (102) 
3.4211

>  <Gold.PLP.Chemscore.Internal.Correction>  (102) 
0.3334

>  <Gold.PLP.Chemscore.Metal>  (102) 
0.0000

>  <Gold.PLP.Fitness>  (102) 
39.9041

>  <Gold.PLP.PLP>  (102) 
-31.2363

>  <Gold.PLP.ligand.clash>  (102) 
0.0000

>  <Gold.PLP.ligand.torsion>  (102) 
0.9645

>  <Gold.PLP.part.buried>  (102) 
-1.6451

>  <Gold.PLP.part.hbond>  (102) 
-5.8506

>  <Gold.PLP.part.metal>  (102) 
0.0000

>  <Gold.PLP.part.nonpolar>  (102) 
-25.1632

>  <Gold.PLP.part.repulsive>  (102) 
0.4157

>  <Gold.Protein.RotatedAtoms>  (102) 


>  <Gold.Protein.RotatedTorsions>  (102) 


>  <Gold.Protein.RotatedWaterAtoms>  (102) 


>  <Gold.Version>  (102) 
5.3.0

>  <PLP.Chemscore.CHOScore>  (102) 


>  <PLP.Chemscore.Hbond>  (102) 


>  <PLP.Chemscore.Internal.Correction>  (102) 


>  <PLP.Chemscore.Metal>  (102) 


>  <PLP.Fitness>  (102) 


>  <PLP.PLP>  (102) 


>  <PLP.ligand.clash>  (102) 


>  <PLP.ligand.torsion>  (102) 


>  <PLP.part.buried>  (102) 


>  <PLP.part.hbond>  (102) 


>  <PLP.part.metal>  (102) 


>  <PLP.part.nonpolar>  (102) 


>  <PLP.part.repulsive>  (102) 


>  <Version>  (102) 


$$$$
3102|Compound_1916|Compounds_3D_F|sdf|557|dock6|1
     RDKit          3D

 19 20  0  0  0  0  0  0  0  0999 V2000
  -12.0656  -17.8477   12.4327 O   0  0  0  0  0  0  0  0  0  0  0  0
  -10.9351  -17.9043   11.6883 C   0  0  0  0  0  0  0  0  0  0  0  0
  -10.8182  -18.8461   10.7660 N   0  0  0  0  0  0  0  0  0  0  0  0
   -9.7283  -18.9351   10.0179 C   0  0  0  0  0  0  0  0  0  0  0  0
   -8.7029  -18.0282   10.2090 C   0  0  0  0  0  0  0  0  0  0  0  0
   -6.9584  -18.1239    9.0520 I   0  0  0  0  0  0  0  0  0  0  0  0
   -8.8565  -17.0467   11.1893 C   0  0  0  0  0  0  0  0  0  0  0  0
   -9.9790  -17.0149   11.8990 N   0  0  0  0  0  0  0  0  0  0  0  0
   -7.8523  -16.1135   11.4165 N   0  0  0  0  0  0  0  0  0  0  0  0
   -8.1679  -14.8709   11.8326 C   0  0  0  0  0  0  0  0  0  0  0  0
   -9.3321  -14.5671   12.0095 O   0  0  0  0  0  0  0  0  0  0  0  0
   -7.1029  -13.8818   12.0742 C   0  0  0  0  0  0  0  0  0  0  0  0
   -5.7901  -14.1016   12.4132 C   0  0  0  0  0  0  0  0  0  0  0  0
   -5.2239  -12.8986   12.5229 O   0  0  0  0  0  0  0  0  0  0  0  0
   -5.9898  -11.9914   12.3030 N   0  0  0  0  0  0  0  0  0  0  0  0
   -7.1817  -12.4145   12.0067 C   0  0  0  0  0  0  0  0  0  0  0  0
   -8.3918  -11.5780   11.6742 C   0  0  0  0  0  0  0  0  0  0  0  0
   -7.9877  -10.1045   11.5999 C   0  0  0  0  0  0  0  0  0  0  0  0
   -5.1218  -15.4369   12.6205 C   0  0  0  0  0  0  0  0  0  0  0  0
  1  2  1  0
  2  3  2  0
  2  8  1  0
  3  4  1  0
  4  5  2  0
  5  6  1  0
  5  7  1  0
  7  8  2  0
  7  9  1  0
  9 10  1  0
 10 11  2  0
 10 12  1  0
 12 13  2  0
 12 16  1  0
 13 14  1  0
 13 19  1  0
 14 15  1  0
 15 16  2  0
 16 17  1  0
 17 18  1  0
M  END
>  <Gold.Gold.Protein.RotatedWaterAtoms>  (103) 


>  <Gold.Id.Protein>  (103) 


>  <Gold.PLP.Chemscore.CHOScore>  (103) 
0.0000

>  <Gold.PLP.Chemscore.Hbond>  (103) 
1.7200

>  <Gold.PLP.Chemscore.Internal.Correction>  (103) 
0.3334

>  <Gold.PLP.Chemscore.Metal>  (103) 
0.0000

>  <Gold.PLP.Fitness>  (103) 
50.0137

>  <Gold.PLP.PLP>  (103) 
-45.5668

>  <Gold.PLP.ligand.clash>  (103) 
0.0000

>  <Gold.PLP.ligand.torsion>  (103) 
0.5232

>  <Gold.PLP.part.buried>  (103) 
-8.6196

>  <Gold.PLP.part.hbond>  (103) 
-3.9758

>  <Gold.PLP.part.metal>  (103) 
0.0000

>  <Gold.PLP.part.nonpolar>  (103) 
-34.0682

>  <Gold.PLP.part.repulsive>  (103) 
0.8612

>  <Gold.Protein.RotatedAtoms>  (103) 


>  <Gold.Protein.RotatedTorsions>  (103) 


>  <Gold.Protein.RotatedWaterAtoms>  (103) 


>  <Gold.Version>  (103) 
5.3.0

>  <PLP.Chemscore.CHOScore>  (103) 


>  <PLP.Chemscore.Hbond>  (103) 


>  <PLP.Chemscore.Internal.Correction>  (103) 


>  <PLP.Chemscore.Metal>  (103) 


>  <PLP.Fitness>  (103) 


>  <PLP.PLP>  (103) 


>  <PLP.ligand.clash>  (103) 


>  <PLP.ligand.torsion>  (103) 


>  <PLP.part.buried>  (103) 


>  <PLP.part.hbond>  (103) 


>  <PLP.part.metal>  (103) 


>  <PLP.part.nonpolar>  (103) 


>  <PLP.part.repulsive>  (103) 


>  <Version>  (103) 


$$$$
3103|Compound_1916|Compounds_3D_F|sdf|557|dock7|1
     RDKit          3D

 19 20  0  0  0  0  0  0  0  0999 V2000
  -13.0155  -18.2127   12.4971 O   0  0  0  0  0  0  0  0  0  0  0  0
  -11.8406  -18.3291   11.8326 C   0  0  0  0  0  0  0  0  0  0  0  0
  -11.7446  -19.2022   10.8427 N   0  0  0  0  0  0  0  0  0  0  0  0
  -10.6130  -19.3461   10.1690 C   0  0  0  0  0  0  0  0  0  0  0  0
   -9.5212  -18.5701   10.5102 C   0  0  0  0  0  0  0  0  0  0  0  0
   -7.7084  -18.7573    9.4759 I   0  0  0  0  0  0  0  0  0  0  0  0
   -9.6542  -17.6584   11.5586 C   0  0  0  0  0  0  0  0  0  0  0  0
  -10.8209  -17.5648   12.1869 N   0  0  0  0  0  0  0  0  0  0  0  0
   -8.5838  -16.8571   11.9365 N   0  0  0  0  0  0  0  0  0  0  0  0
   -8.5987  -15.5377   11.6610 C   0  0  0  0  0  0  0  0  0  0  0  0
   -9.5499  -15.0490   11.0818 O   0  0  0  0  0  0  0  0  0  0  0  0
   -7.4640  -14.6880   12.0624 C   0  0  0  0  0  0  0  0  0  0  0  0
   -7.3757  -13.3172   12.0565 C   0  0  0  0  0  0  0  0  0  0  0  0
   -6.1555  -13.0174   12.5049 O   0  0  0  0  0  0  0  0  0  0  0  0
   -5.4976  -13.9919   12.7792 N   0  0  0  0  0  0  0  0  0  0  0  0
   -6.1471  -15.0980   12.5737 C   0  0  0  0  0  0  0  0  0  0  0  0
   -5.6520  -16.5042   12.8014 C   0  0  0  0  0  0  0  0  0  0  0  0
   -4.2872  -16.6784   12.1327 C   0  0  0  0  0  0  0  0  0  0  0  0
   -8.4450  -12.3447   11.6280 C   0  0  0  0  0  0  0  0  0  0  0  0
  1  2  1  0
  2  3  2  0
  2  8  1  0
  3  4  1  0
  4  5  2  0
  5  6  1  0
  5  7  1  0
  7  8  2  0
  7  9  1  0
  9 10  1  0
 10 11  2  0
 10 12  1  0
 12 13  2  0
 12 16  1  0
 13 14  1  0
 13 19  1  0
 14 15  1  0
 15 16  2  0
 16 17  1  0
 17 18  1  0
M  END
>  <Gold.Gold.Protein.RotatedWaterAtoms>  (104) 


>  <Gold.Id.Protein>  (104) 


>  <Gold.PLP.Chemscore.CHOScore>  (104) 
0.0000

>  <Gold.PLP.Chemscore.Hbond>  (104) 
1.3656

>  <Gold.PLP.Chemscore.Internal.Correction>  (104) 
0.3334

>  <Gold.PLP.Chemscore.Metal>  (104) 
0.0000

>  <Gold.PLP.Fitness>  (104) 
45.6633

>  <Gold.PLP.PLP>  (104) 
-42.8612

>  <Gold.PLP.ligand.clash>  (104) 
0.0000

>  <Gold.PLP.ligand.torsion>  (104) 
0.8141

>  <Gold.PLP.part.buried>  (104) 
-9.8836

>  <Gold.PLP.part.hbond>  (104) 
-2.4159

>  <Gold.PLP.part.metal>  (104) 
0.0000

>  <Gold.PLP.part.nonpolar>  (104) 
-31.4524

>  <Gold.PLP.part.repulsive>  (104) 
0.7240

>  <Gold.Protein.RotatedAtoms>  (104) 


>  <Gold.Protein.RotatedTorsions>  (104) 


>  <Gold.Protein.RotatedWaterAtoms>  (104) 


>  <Gold.Version>  (104) 
5.3.0

>  <PLP.Chemscore.CHOScore>  (104) 


>  <PLP.Chemscore.Hbond>  (104) 


>  <PLP.Chemscore.Internal.Correction>  (104) 


>  <PLP.Chemscore.Metal>  (104) 


>  <PLP.Fitness>  (104) 


>  <PLP.PLP>  (104) 


>  <PLP.ligand.clash>  (104) 


>  <PLP.ligand.torsion>  (104) 


>  <PLP.part.buried>  (104) 


>  <PLP.part.hbond>  (104) 


>  <PLP.part.metal>  (104) 


>  <PLP.part.nonpolar>  (104) 


>  <PLP.part.repulsive>  (104) 


>  <Version>  (104) 


$$$$
3104|Compound_1916|Compounds_3D_F|sdf|557|dock8|1
     RDKit          3D

 19 20  0  0  0  0  0  0  0  0999 V2000
  -11.9780  -17.9994   12.2916 O   0  0  0  0  0  0  0  0  0  0  0  0
  -10.7734  -17.8916   11.6809 C   0  0  0  0  0  0  0  0  0  0  0  0
  -10.4864  -18.7031   10.6757 N   0  0  0  0  0  0  0  0  0  0  0  0
   -9.3193  -18.6295   10.0530 C   0  0  0  0  0  0  0  0  0  0  0  0
   -8.3931  -17.6896   10.4645 C   0  0  0  0  0  0  0  0  0  0  0  0
   -6.5329  -17.5305    9.5131 I   0  0  0  0  0  0  0  0  0  0  0  0
   -8.7257  -16.8483   11.5273 C   0  0  0  0  0  0  0  0  0  0  0  0
   -9.9167  -16.9759   12.1017 N   0  0  0  0  0  0  0  0  0  0  0  0
   -7.8264  -15.8883   11.9750 N   0  0  0  0  0  0  0  0  0  0  0  0
   -7.8742  -14.6359   11.4787 C   0  0  0  0  0  0  0  0  0  0  0  0
   -8.7051  -14.3467   10.6391 O   0  0  0  0  0  0  0  0  0  0  0  0
   -6.9211  -13.6178   11.9540 C   0  0  0  0  0  0  0  0  0  0  0  0
   -5.6577  -13.7978   12.4623 C   0  0  0  0  0  0  0  0  0  0  0  0
   -5.1927  -12.5814   12.7522 O   0  0  0  0  0  0  0  0  0  0  0  0
   -5.9775  -11.6999   12.4979 N   0  0  0  0  0  0  0  0  0  0  0  0
   -7.0854  -12.1567   11.9966 C   0  0  0  0  0  0  0  0  0  0  0  0
   -8.2885  -11.3588   11.5604 C   0  0  0  0  0  0  0  0  0  0  0  0
   -7.9660   -9.8656   11.6411 C   0  0  0  0  0  0  0  0  0  0  0  0
   -4.9394  -15.1092   12.6548 C   0  0  0  0  0  0  0  0  0  0  0  0
  1  2  1  0
  2  3  2  0
  2  8  1  0
  3  4  1  0
  4  5  2  0
  5  6  1  0
  5  7  1  0
  7  8  2  0
  7  9  1  0
  9 10  1  0
 10 11  2  0
 10 12  1  0
 12 13  2  0
 12 16  1  0
 13 14  1  0
 13 19  1  0
 14 15  1  0
 15 16  2  0
 16 17  1  0
 17 18  1  0
M  END
>  <Gold.Gold.Protein.RotatedWaterAtoms>  (105) 


>  <Gold.Id.Protein>  (105) 


>  <Gold.PLP.Chemscore.CHOScore>  (105) 
0.0000

>  <Gold.PLP.Chemscore.Hbond>  (105) 
1.2846

>  <Gold.PLP.Chemscore.Internal.Correction>  (105) 
0.3334

>  <Gold.PLP.Chemscore.Metal>  (105) 
0.0000

>  <Gold.PLP.Fitness>  (105) 
46.5766

>  <Gold.PLP.PLP>  (105) 
-44.5754

>  <Gold.PLP.ligand.clash>  (105) 
0.0000

>  <Gold.PLP.ligand.torsion>  (105) 
1.0930

>  <Gold.PLP.part.buried>  (105) 
-7.9685

>  <Gold.PLP.part.hbond>  (105) 
-3.1891

>  <Gold.PLP.part.metal>  (105) 
0.0000

>  <Gold.PLP.part.nonpolar>  (105) 
-35.9761

>  <Gold.PLP.part.repulsive>  (105) 
1.2974

>  <Gold.Protein.RotatedAtoms>  (105) 


>  <Gold.Protein.RotatedTorsions>  (105) 


>  <Gold.Protein.RotatedWaterAtoms>  (105) 


>  <Gold.Version>  (105) 
5.3.0

>  <PLP.Chemscore.CHOScore>  (105) 


>  <PLP.Chemscore.Hbond>  (105) 


>  <PLP.Chemscore.Internal.Correction>  (105) 


>  <PLP.Chemscore.Metal>  (105) 


>  <PLP.Fitness>  (105) 


>  <PLP.PLP>  (105) 


>  <PLP.ligand.clash>  (105) 


>  <PLP.ligand.torsion>  (105) 


>  <PLP.part.buried>  (105) 


>  <PLP.part.hbond>  (105) 


>  <PLP.part.metal>  (105) 


>  <PLP.part.nonpolar>  (105) 


>  <PLP.part.repulsive>  (105) 


>  <Version>  (105) 


$$$$
3105|Compound_1916|Compounds_3D_F|sdf|557|dock9|1
     RDKit          3D

 19 20  0  0  0  0  0  0  0  0999 V2000
  -12.9971  -18.0961   12.5009 O   0  0  0  0  0  0  0  0  0  0  0  0
  -11.8504  -18.3418   11.8224 C   0  0  0  0  0  0  0  0  0  0  0  0
  -11.8306  -19.3107   10.9213 N   0  0  0  0  0  0  0  0  0  0  0  0
  -10.7289  -19.5823   10.2374 C   0  0  0  0  0  0  0  0  0  0  0  0
   -9.5876  -18.8391   10.4737 C   0  0  0  0  0  0  0  0  0  0  0  0
   -7.8191  -19.2266    9.4187 I   0  0  0  0  0  0  0  0  0  0  0  0
   -9.6406  -17.8240   11.4302 C   0  0  0  0  0  0  0  0  0  0  0  0
  -10.7814  -17.6049   12.0747 N   0  0  0  0  0  0  0  0  0  0  0  0
   -8.5182  -17.0509   11.7010 N   0  0  0  0  0  0  0  0  0  0  0  0
   -8.6269  -15.7098   11.7833 C   0  0  0  0  0  0  0  0  0  0  0  0
   -9.7080  -15.1770   11.6208 O   0  0  0  0  0  0  0  0  0  0  0  0
   -7.4369  -14.8902   12.0712 C   0  0  0  0  0  0  0  0  0  0  0  0
   -7.3325  -13.5218   12.1293 C   0  0  0  0  0  0  0  0  0  0  0  0
   -6.0586  -13.2543   12.4214 O   0  0  0  0  0  0  0  0  0  0  0  0
   -5.3819  -14.2462   12.5479 N   0  0  0  0  0  0  0  0  0  0  0  0
   -6.0678  -15.3354   12.3727 C   0  0  0  0  0  0  0  0  0  0  0  0
   -5.5643  -16.7549   12.4516 C   0  0  0  0  0  0  0  0  0  0  0  0
   -4.0354  -16.7511   12.5020 C   0  0  0  0  0  0  0  0  0  0  0  0
   -8.4378  -12.5209   11.9069 C   0  0  0  0  0  0  0  0  0  0  0  0
  1  2  1  0
  2  3  2  0
  2  8  1  0
  3  4  1  0
  4  5  2  0
  5  6  1  0
  5  7  1  0
  7  8  2  0
  7  9  1  0
  9 10  1  0
 10 11  2  0
 10 12  1  0
 12 13  2  0
 12 16  1  0
 13 14  1  0
 13 19  1  0
 14 15  1  0
 15 16  2  0
 16 17  1  0
 17 18  1  0
M  END
>  <Gold.Gold.Protein.RotatedWaterAtoms>  (106) 


>  <Gold.Id.Protein>  (106) 


>  <Gold.PLP.Chemscore.CHOScore>  (106) 
0.0000

>  <Gold.PLP.Chemscore.Hbond>  (106) 
1.1341

>  <Gold.PLP.Chemscore.Internal.Correction>  (106) 
0.3301

>  <Gold.PLP.Chemscore.Metal>  (106) 
0.0000

>  <Gold.PLP.Fitness>  (106) 
44.9862

>  <Gold.PLP.PLP>  (106) 
-42.2877

>  <Gold.PLP.ligand.clash>  (106) 
0.0000

>  <Gold.PLP.ligand.torsion>  (106) 
0.5169

>  <Gold.PLP.part.buried>  (106) 
-9.9920

>  <Gold.PLP.part.hbond>  (106) 
-1.8880

>  <Gold.PLP.part.metal>  (106) 
0.0000

>  <Gold.PLP.part.nonpolar>  (106) 
-30.6120

>  <Gold.PLP.part.repulsive>  (106) 
0.6708

>  <Gold.Protein.RotatedAtoms>  (106) 


>  <Gold.Protein.RotatedTorsions>  (106) 


>  <Gold.Protein.RotatedWaterAtoms>  (106) 


>  <Gold.Version>  (106) 
5.3.0

>  <PLP.Chemscore.CHOScore>  (106) 


>  <PLP.Chemscore.Hbond>  (106) 


>  <PLP.Chemscore.Internal.Correction>  (106) 


>  <PLP.Chemscore.Metal>  (106) 


>  <PLP.Fitness>  (106) 


>  <PLP.PLP>  (106) 


>  <PLP.ligand.clash>  (106) 


>  <PLP.ligand.torsion>  (106) 


>  <PLP.part.buried>  (106) 


>  <PLP.part.hbond>  (106) 


>  <PLP.part.metal>  (106) 


>  <PLP.part.nonpolar>  (106) 


>  <PLP.part.repulsive>  (106) 


>  <Version>  (106) 


$$$$
3106|Compound_1917|Compounds_3D_F|sdf|558|dock1|1
     RDKit          3D

 21 22  0  0  0  0  0  0  0  0999 V2000
   -7.7425  -16.0705   11.5122 N   0  0  0  0  0  0  0  0  0  0  0  0
   -8.0901  -14.7811   11.6958 C   0  0  0  0  0  0  0  0  0  0  0  0
   -9.2556  -14.4482   11.6109 O   0  0  0  0  0  0  0  0  0  0  0  0
   -7.0558  -13.7759   11.9996 C   0  0  0  0  0  0  0  0  0  0  0  0
   -5.7536  -13.9778   12.3877 C   0  0  0  0  0  0  0  0  0  0  0  0
   -5.2169  -12.7652   12.5438 O   0  0  0  0  0  0  0  0  0  0  0  0
   -5.9903  -11.8698   12.3104 N   0  0  0  0  0  0  0  0  0  0  0  0
   -7.1616  -12.3095   11.9559 C   0  0  0  0  0  0  0  0  0  0  0  0
   -8.3730  -11.4904   11.5898 C   0  0  0  0  0  0  0  0  0  0  0  0
   -8.0072  -10.0049   11.6042 C   0  0  0  0  0  0  0  0  0  0  0  0
   -5.0675  -15.3025   12.5967 C   0  0  0  0  0  0  0  0  0  0  0  0
   -8.7134  -17.0149   11.2217 C   0  0  0  0  0  0  0  0  0  0  0  0
   -9.9249  -17.0316   11.7108 N   0  0  0  0  0  0  0  0  0  0  0  0
  -10.5813  -18.1079   11.1945 C   0  0  0  0  0  0  0  0  0  0  0  0
   -9.7128  -18.7498   10.3665 C   0  0  0  0  0  0  0  0  0  0  0  0
   -8.5604  -18.0575   10.3893 O   0  0  0  0  0  0  0  0  0  0  0  0
  -11.9708  -18.5044   11.4796 C   0  0  0  0  0  0  0  0  0  0  0  0
  -12.4994  -18.1639   12.5186 O   0  0  0  0  0  0  0  0  0  0  0  0
  -12.6553  -19.2473   10.5866 O   0  0  0  0  0  0  0  0  0  0  0  0
  -14.1002  -19.2791   10.7270 C   0  0  0  0  0  0  0  0  0  0  0  0
  -14.7065  -20.0853    9.5760 C   0  0  0  0  0  0  0  0  0  0  0  0
  1  2  1  0
  1 12  1  0
  2  3  2  0
  2  4  1  0
  4  5  2  0
  4  8  1  0
  5  6  1  0
  5 11  1  0
  6  7  1  0
  7  8  2  0
  8  9  1  0
  9 10  1  0
 12 13  2  0
 12 16  1  0
 13 14  1  0
 14 15  2  0
 14 17  1  0
 15 16  1  0
 17 18  2  0
 17 19  1  0
 19 20  1  0
 20 21  1  0
M  END
>  <Gold.Gold.Protein.RotatedWaterAtoms>  (107) 


>  <Gold.Id.Protein>  (107) 


>  <Gold.PLP.Chemscore.CHOScore>  (107) 
0.0000

>  <Gold.PLP.Chemscore.Hbond>  (107) 
1.6000

>  <Gold.PLP.Chemscore.Internal.Correction>  (107) 
0.2097

>  <Gold.PLP.Chemscore.Metal>  (107) 
0.0000

>  <Gold.PLP.Fitness>  (107) 
56.9269

>  <Gold.PLP.PLP>  (107) 
-54.0764

>  <Gold.PLP.ligand.clash>  (107) 
0.4339

>  <Gold.PLP.ligand.torsion>  (107) 
0.8627

>  <Gold.PLP.part.buried>  (107) 
-11.0593

>  <Gold.PLP.part.hbond>  (107) 
-3.0000

>  <Gold.PLP.part.metal>  (107) 
0.0000

>  <Gold.PLP.part.nonpolar>  (107) 
-41.3581

>  <Gold.PLP.part.repulsive>  (107) 
0.9730

>  <Gold.Protein.RotatedAtoms>  (107) 


>  <Gold.Protein.RotatedTorsions>  (107) 


>  <Gold.Protein.RotatedWaterAtoms>  (107) 


>  <Gold.Version>  (107) 
5.3.0

>  <PLP.Chemscore.CHOScore>  (107) 


>  <PLP.Chemscore.Hbond>  (107) 


>  <PLP.Chemscore.Internal.Correction>  (107) 


>  <PLP.Chemscore.Metal>  (107) 


>  <PLP.Fitness>  (107) 


>  <PLP.PLP>  (107) 


>  <PLP.ligand.clash>  (107) 


>  <PLP.ligand.torsion>  (107) 


>  <PLP.part.buried>  (107) 


>  <PLP.part.hbond>  (107) 


>  <PLP.part.metal>  (107) 


>  <PLP.part.nonpolar>  (107) 


>  <PLP.part.repulsive>  (107) 


>  <Version>  (107) 


$$$$
3107|Compound_1917|Compounds_3D_F|sdf|558|dock2|1
     RDKit          3D

 21 22  0  0  0  0  0  0  0  0999 V2000
   -8.5421  -17.0228   11.6521 N   0  0  0  0  0  0  0  0  0  0  0  0
   -8.6224  -15.7003   11.9005 C   0  0  0  0  0  0  0  0  0  0  0  0
   -9.7071  -15.1538   11.9357 O   0  0  0  0  0  0  0  0  0  0  0  0
   -7.3942  -14.9183   12.1295 C   0  0  0  0  0  0  0  0  0  0  0  0
   -7.2396  -13.5534   12.1493 C   0  0  0  0  0  0  0  0  0  0  0  0
   -5.9467  -13.3263   12.3935 O   0  0  0  0  0  0  0  0  0  0  0  0
   -5.3031  -14.3379   12.5234 N   0  0  0  0  0  0  0  0  0  0  0  0
   -6.0333  -15.4067   12.3991 C   0  0  0  0  0  0  0  0  0  0  0  0
   -5.5791  -16.8405   12.4985 C   0  0  0  0  0  0  0  0  0  0  0  0
   -4.3739  -17.0583   11.5816 C   0  0  0  0  0  0  0  0  0  0  0  0
   -8.3136  -12.5187   11.9371 C   0  0  0  0  0  0  0  0  0  0  0  0
   -9.6956  -17.7574   11.4319 C   0  0  0  0  0  0  0  0  0  0  0  0
   -9.8492  -18.6686   10.5081 N   0  0  0  0  0  0  0  0  0  0  0  0
  -11.1135  -19.1671   10.6029 C   0  0  0  0  0  0  0  0  0  0  0  0
  -11.7267  -18.5163   11.6288 C   0  0  0  0  0  0  0  0  0  0  0  0
  -10.8336  -17.6492   12.1367 O   0  0  0  0  0  0  0  0  0  0  0  0
  -11.7072  -20.2135    9.7535 C   0  0  0  0  0  0  0  0  0  0  0  0
  -10.9910  -20.9493    9.1050 O   0  0  0  0  0  0  0  0  0  0  0  0
  -13.0470  -20.3533    9.6953 O   0  0  0  0  0  0  0  0  0  0  0  0
  -13.5690  -21.2902    8.7165 C   0  0  0  0  0  0  0  0  0  0  0  0
  -15.0948  -21.1808    8.6694 C   0  0  0  0  0  0  0  0  0  0  0  0
  1  2  1  0
  1 12  1  0
  2  3  2  0
  2  4  1  0
  4  5  2  0
  4  8  1  0
  5  6  1  0
  5 11  1  0
  6  7  1  0
  7  8  2  0
  8  9  1  0
  9 10  1  0
 12 13  2  0
 12 16  1  0
 13 14  1  0
 14 15  2  0
 14 17  1  0
 15 16  1  0
 17 18  2  0
 17 19  1  0
 19 20  1  0
 20 21  1  0
M  END
>  <Gold.Gold.Protein.RotatedWaterAtoms>  (108) 


>  <Gold.Id.Protein>  (108) 


>  <Gold.PLP.Chemscore.CHOScore>  (108) 
0.0000

>  <Gold.PLP.Chemscore.Hbond>  (108) 
1.6081

>  <Gold.PLP.Chemscore.Internal.Correction>  (108) 
0.1497

>  <Gold.PLP.Chemscore.Metal>  (108) 
0.0000

>  <Gold.PLP.Fitness>  (108) 
48.9607

>  <Gold.PLP.PLP>  (108) 
-45.4217

>  <Gold.PLP.ligand.clash>  (108) 
0.0000

>  <Gold.PLP.ligand.torsion>  (108) 
0.7175

>  <Gold.PLP.part.buried>  (108) 
-9.6929

>  <Gold.PLP.part.hbond>  (108) 
-2.0990

>  <Gold.PLP.part.metal>  (108) 
0.0000

>  <Gold.PLP.part.nonpolar>  (108) 
-34.2780

>  <Gold.PLP.part.repulsive>  (108) 
0.6872

>  <Gold.Protein.RotatedAtoms>  (108) 


>  <Gold.Protein.RotatedTorsions>  (108) 


>  <Gold.Protein.RotatedWaterAtoms>  (108) 


>  <Gold.Version>  (108) 
5.3.0

>  <PLP.Chemscore.CHOScore>  (108) 


>  <PLP.Chemscore.Hbond>  (108) 


>  <PLP.Chemscore.Internal.Correction>  (108) 


>  <PLP.Chemscore.Metal>  (108) 


>  <PLP.Fitness>  (108) 


>  <PLP.PLP>  (108) 


>  <PLP.ligand.clash>  (108) 


>  <PLP.ligand.torsion>  (108) 


>  <PLP.part.buried>  (108) 


>  <PLP.part.hbond>  (108) 


>  <PLP.part.metal>  (108) 


>  <PLP.part.nonpolar>  (108) 


>  <PLP.part.repulsive>  (108) 


>  <Version>  (108) 


$$$$
3108|Compound_1917|Compounds_3D_F|sdf|558|dock3|1
     RDKit          3D

 21 22  0  0  0  0  0  0  0  0999 V2000
   -7.6363  -16.1727   11.6457 N   0  0  0  0  0  0  0  0  0  0  0  0
   -8.0302  -14.8968   11.8304 C   0  0  0  0  0  0  0  0  0  0  0  0
   -9.2124  -14.6167   11.8069 O   0  0  0  0  0  0  0  0  0  0  0  0
   -7.0264  -13.8424   12.0609 C   0  0  0  0  0  0  0  0  0  0  0  0
   -5.7065  -13.9798   12.4158 C   0  0  0  0  0  0  0  0  0  0  0  0
   -5.2120  -12.7428   12.5060 O   0  0  0  0  0  0  0  0  0  0  0  0
   -6.0257  -11.8870   12.2611 N   0  0  0  0  0  0  0  0  0  0  0  0
   -7.1894  -12.3840   11.9616 C   0  0  0  0  0  0  0  0  0  0  0  0
   -8.4415  -11.6260   11.6010 C   0  0  0  0  0  0  0  0  0  0  0  0
   -8.1474  -10.1246   11.6046 C   0  0  0  0  0  0  0  0  0  0  0  0
   -4.9644  -15.2685   12.6563 C   0  0  0  0  0  0  0  0  0  0  0  0
   -8.5788  -17.1633   11.4241 C   0  0  0  0  0  0  0  0  0  0  0  0
   -9.8489  -17.0810   11.7197 N   0  0  0  0  0  0  0  0  0  0  0  0
  -10.4508  -18.2474   11.3552 C   0  0  0  0  0  0  0  0  0  0  0  0
   -9.4877  -19.0482   10.8231 C   0  0  0  0  0  0  0  0  0  0  0  0
   -8.3332  -18.3605   10.8675 O   0  0  0  0  0  0  0  0  0  0  0  0
  -11.8770  -18.5812   11.5092 C   0  0  0  0  0  0  0  0  0  0  0  0
  -12.4811  -18.2258   12.5010 O   0  0  0  0  0  0  0  0  0  0  0  0
  -12.5114  -19.2831   10.5486 O   0  0  0  0  0  0  0  0  0  0  0  0
  -13.9631  -19.2803   10.5816 C   0  0  0  0  0  0  0  0  0  0  0  0
  -14.5048  -19.7086    9.2158 C   0  0  0  0  0  0  0  0  0  0  0  0
  1  2  1  0
  1 12  1  0
  2  3  2  0
  2  4  1  0
  4  5  2  0
  4  8  1  0
  5  6  1  0
  5 11  1  0
  6  7  1  0
  7  8  2  0
  8  9  1  0
  9 10  1  0
 12 13  2  0
 12 16  1  0
 13 14  1  0
 14 15  2  0
 14 17  1  0
 15 16  1  0
 17 18  2  0
 17 19  1  0
 19 20  1  0
 20 21  1  0
M  END
>  <Gold.Gold.Protein.RotatedWaterAtoms>  (109) 


>  <Gold.Id.Protein>  (109) 


>  <Gold.PLP.Chemscore.CHOScore>  (109) 
0.0000

>  <Gold.PLP.Chemscore.Hbond>  (109) 
1.8632

>  <Gold.PLP.Chemscore.Internal.Correction>  (109) 
0.1097

>  <Gold.PLP.Chemscore.Metal>  (109) 
0.0000

>  <Gold.PLP.Fitness>  (109) 
58.2173

>  <Gold.PLP.PLP>  (109) 
-54.7619

>  <Gold.PLP.ligand.clash>  (109) 
0.1234

>  <Gold.PLP.ligand.torsion>  (109) 
1.0602

>  <Gold.PLP.part.buried>  (109) 
-12.5444

>  <Gold.PLP.part.hbond>  (109) 
-3.0000

>  <Gold.PLP.part.metal>  (109) 
0.0000

>  <Gold.PLP.part.nonpolar>  (109) 
-41.2714

>  <Gold.PLP.part.repulsive>  (109) 
0.9633

>  <Gold.Protein.RotatedAtoms>  (109) 


>  <Gold.Protein.RotatedTorsions>  (109) 


>  <Gold.Protein.RotatedWaterAtoms>  (109) 


>  <Gold.Version>  (109) 
5.3.0

>  <PLP.Chemscore.CHOScore>  (109) 


>  <PLP.Chemscore.Hbond>  (109) 


>  <PLP.Chemscore.Internal.Correction>  (109) 


>  <PLP.Chemscore.Metal>  (109) 


>  <PLP.Fitness>  (109) 


>  <PLP.PLP>  (109) 


>  <PLP.ligand.clash>  (109) 


>  <PLP.ligand.torsion>  (109) 


>  <PLP.part.buried>  (109) 


>  <PLP.part.hbond>  (109) 


>  <PLP.part.metal>  (109) 


>  <PLP.part.nonpolar>  (109) 


>  <PLP.part.repulsive>  (109) 


>  <Version>  (109) 


$$$$
3109|Compound_1917|Compounds_3D_F|sdf|558|dock4|1
     RDKit          3D

 21 22  0  0  0  0  0  0  0  0999 V2000
   -8.1872  -16.8938   11.5239 N   0  0  0  0  0  0  0  0  0  0  0  0
   -8.4031  -15.5703   11.6616 C   0  0  0  0  0  0  0  0  0  0  0  0
   -9.5210  -15.1185   11.5107 O   0  0  0  0  0  0  0  0  0  0  0  0
   -7.2830  -14.6724   11.9952 C   0  0  0  0  0  0  0  0  0  0  0  0
   -7.2633  -13.2989   12.0145 C   0  0  0  0  0  0  0  0  0  0  0  0
   -6.0269  -12.9469   12.3753 O   0  0  0  0  0  0  0  0  0  0  0  0
   -5.3036  -13.8910   12.5755 N   0  0  0  0  0  0  0  0  0  0  0  0
   -5.9125  -15.0258   12.3955 C   0  0  0  0  0  0  0  0  0  0  0  0
   -5.3334  -16.4087   12.5522 C   0  0  0  0  0  0  0  0  0  0  0  0
   -4.1576  -16.5812   11.5886 C   0  0  0  0  0  0  0  0  0  0  0  0
   -8.4076  -12.3737   11.6921 C   0  0  0  0  0  0  0  0  0  0  0  0
   -9.2385  -17.7377   11.2054 C   0  0  0  0  0  0  0  0  0  0  0  0
  -10.2801  -17.4129   10.4865 N   0  0  0  0  0  0  0  0  0  0  0  0
  -11.0932  -18.5019   10.3927 C   0  0  0  0  0  0  0  0  0  0  0  0
  -10.4995  -19.5087   11.0898 C   0  0  0  0  0  0  0  0  0  0  0  0
   -9.3477  -19.0216   11.5835 O   0  0  0  0  0  0  0  0  0  0  0  0
  -12.3760  -18.5764    9.6730 C   0  0  0  0  0  0  0  0  0  0  0  0
  -12.8682  -17.5711    9.2018 O   0  0  0  0  0  0  0  0  0  0  0  0
  -13.0044  -19.7617    9.5387 O   0  0  0  0  0  0  0  0  0  0  0  0
  -14.3054  -19.7475    8.8939 C   0  0  0  0  0  0  0  0  0  0  0  0
  -14.6833  -21.1708    8.4772 C   0  0  0  0  0  0  0  0  0  0  0  0
  1  2  1  0
  1 12  1  0
  2  3  2  0
  2  4  1  0
  4  5  2  0
  4  8  1  0
  5  6  1  0
  5 11  1  0
  6  7  1  0
  7  8  2  0
  8  9  1  0
  9 10  1  0
 12 13  2  0
 12 16  1  0
 13 14  1  0
 14 15  2  0
 14 17  1  0
 15 16  1  0
 17 18  2  0
 17 19  1  0
 19 20  1  0
 20 21  1  0
M  END
>  <Gold.Gold.Protein.RotatedWaterAtoms>  (110) 


>  <Gold.Id.Protein>  (110) 


>  <Gold.PLP.Chemscore.CHOScore>  (110) 
0.0000

>  <Gold.PLP.Chemscore.Hbond>  (110) 
1.0000

>  <Gold.PLP.Chemscore.Internal.Correction>  (110) 
0.1097

>  <Gold.PLP.Chemscore.Metal>  (110) 
0.0000

>  <Gold.PLP.Fitness>  (110) 
52.0403

>  <Gold.PLP.PLP>  (110) 
-49.5992

>  <Gold.PLP.ligand.clash>  (110) 
0.0000

>  <Gold.PLP.ligand.torsion>  (110) 
0.3343

>  <Gold.PLP.part.buried>  (110) 
-10.4270

>  <Gold.PLP.part.hbond>  (110) 
-2.4392

>  <Gold.PLP.part.metal>  (110) 
0.0000

>  <Gold.PLP.part.nonpolar>  (110) 
-37.3577

>  <Gold.PLP.part.repulsive>  (110) 
0.7065

>  <Gold.Protein.RotatedAtoms>  (110) 


>  <Gold.Protein.RotatedTorsions>  (110) 


>  <Gold.Protein.RotatedWaterAtoms>  (110) 


>  <Gold.Version>  (110) 
5.3.0

>  <PLP.Chemscore.CHOScore>  (110) 


>  <PLP.Chemscore.Hbond>  (110) 


>  <PLP.Chemscore.Internal.Correction>  (110) 


>  <PLP.Chemscore.Metal>  (110) 


>  <PLP.Fitness>  (110) 


>  <PLP.PLP>  (110) 


>  <PLP.ligand.clash>  (110) 


>  <PLP.ligand.torsion>  (110) 


>  <PLP.part.buried>  (110) 


>  <PLP.part.hbond>  (110) 


>  <PLP.part.metal>  (110) 


>  <PLP.part.nonpolar>  (110) 


>  <PLP.part.repulsive>  (110) 


>  <Version>  (110) 


$$$$
3110|Compound_1917|Compounds_3D_F|sdf|558|dock5|1
     RDKit          3D

 21 22  0  0  0  0  0  0  0  0999 V2000
   -8.1824  -17.0466   11.4749 N   0  0  0  0  0  0  0  0  0  0  0  0
   -8.4355  -15.7271   11.5849 C   0  0  0  0  0  0  0  0  0  0  0  0
   -9.5403  -15.2965   11.3195 O   0  0  0  0  0  0  0  0  0  0  0  0
   -7.3718  -14.8077   12.0273 C   0  0  0  0  0  0  0  0  0  0  0  0
   -7.3797  -13.4342   12.0439 C   0  0  0  0  0  0  0  0  0  0  0  0
   -6.1930  -13.0584   12.5270 O   0  0  0  0  0  0  0  0  0  0  0  0
   -5.4763  -13.9885   12.8025 N   0  0  0  0  0  0  0  0  0  0  0  0
   -6.0426  -15.1348   12.5655 C   0  0  0  0  0  0  0  0  0  0  0  0
   -5.4567  -16.5063   12.7847 C   0  0  0  0  0  0  0  0  0  0  0  0
   -4.1092  -16.6056   12.0671 C   0  0  0  0  0  0  0  0  0  0  0  0
   -8.5024  -12.5311   11.6043 C   0  0  0  0  0  0  0  0  0  0  0  0
   -9.1801  -17.9105   11.0545 C   0  0  0  0  0  0  0  0  0  0  0  0
  -10.2847  -17.5572   10.4524 N   0  0  0  0  0  0  0  0  0  0  0  0
  -11.0127  -18.6802   10.1978 C   0  0  0  0  0  0  0  0  0  0  0  0
  -10.3009  -19.7378   10.6739 C   0  0  0  0  0  0  0  0  0  0  0  0
   -9.1645  -19.2457   11.1974 O   0  0  0  0  0  0  0  0  0  0  0  0
  -12.3256  -18.7394    9.5329 C   0  0  0  0  0  0  0  0  0  0  0  0
  -12.8927  -17.7139    9.2143 O   0  0  0  0  0  0  0  0  0  0  0  0
  -12.8982  -19.9335    9.2795 O   0  0  0  0  0  0  0  0  0  0  0  0
  -14.2009  -19.9157    8.6383 C   0  0  0  0  0  0  0  0  0  0  0  0
  -14.6025  -21.3434    8.2604 C   0  0  0  0  0  0  0  0  0  0  0  0
  1  2  1  0
  1 12  1  0
  2  3  2  0
  2  4  1  0
  4  5  2  0
  4  8  1  0
  5  6  1  0
  5 11  1  0
  6  7  1  0
  7  8  2  0
  8  9  1  0
  9 10  1  0
 12 13  2  0
 12 16  1  0
 13 14  1  0
 14 15  2  0
 14 17  1  0
 15 16  1  0
 17 18  2  0
 17 19  1  0
 19 20  1  0
 20 21  1  0
M  END
>  <Gold.Gold.Protein.RotatedWaterAtoms>  (111) 


>  <Gold.Id.Protein>  (111) 


>  <Gold.PLP.Chemscore.CHOScore>  (111) 
0.0000

>  <Gold.PLP.Chemscore.Hbond>  (111) 
1.0000

>  <Gold.PLP.Chemscore.Internal.Correction>  (111) 
0.0781

>  <Gold.PLP.Chemscore.Metal>  (111) 
0.0000

>  <Gold.PLP.Fitness>  (111) 
52.1309

>  <Gold.PLP.PLP>  (111) 
-49.3616

>  <Gold.PLP.ligand.clash>  (111) 
0.0000

>  <Gold.PLP.ligand.torsion>  (111) 
0.1544

>  <Gold.PLP.part.buried>  (111) 
-10.2640

>  <Gold.PLP.part.hbond>  (111) 
-1.8954

>  <Gold.PLP.part.metal>  (111) 
0.0000

>  <Gold.PLP.part.nonpolar>  (111) 
-37.1372

>  <Gold.PLP.part.repulsive>  (111) 
0.6855

>  <Gold.Protein.RotatedAtoms>  (111) 


>  <Gold.Protein.RotatedTorsions>  (111) 


>  <Gold.Protein.RotatedWaterAtoms>  (111) 


>  <Gold.Version>  (111) 
5.3.0

>  <PLP.Chemscore.CHOScore>  (111) 


>  <PLP.Chemscore.Hbond>  (111) 


>  <PLP.Chemscore.Internal.Correction>  (111) 


>  <PLP.Chemscore.Metal>  (111) 


>  <PLP.Fitness>  (111) 


>  <PLP.PLP>  (111) 


>  <PLP.ligand.clash>  (111) 


>  <PLP.ligand.torsion>  (111) 


>  <PLP.part.buried>  (111) 


>  <PLP.part.hbond>  (111) 


>  <PLP.part.metal>  (111) 


>  <PLP.part.nonpolar>  (111) 


>  <PLP.part.repulsive>  (111) 


>  <Version>  (111) 


$$$$
3111|Compound_1917|Compounds_3D_F|sdf|558|dock6|1
     RDKit          3D

 21 22  0  0  0  0  0  0  0  0999 V2000
   -8.0780  -16.7505   11.0629 N   0  0  0  0  0  0  0  0  0  0  0  0
   -8.3677  -15.5681   11.6416 C   0  0  0  0  0  0  0  0  0  0  0  0
   -9.5200  -15.2881   11.9073 O   0  0  0  0  0  0  0  0  0  0  0  0
   -7.2865  -14.6156   11.9518 C   0  0  0  0  0  0  0  0  0  0  0  0
   -5.9928  -14.8823   12.3290 C   0  0  0  0  0  0  0  0  0  0  0  0
   -5.3999  -13.6978   12.4974 O   0  0  0  0  0  0  0  0  0  0  0  0
   -6.1327  -12.7648   12.2806 N   0  0  0  0  0  0  0  0  0  0  0  0
   -7.3250  -13.1455   11.9279 C   0  0  0  0  0  0  0  0  0  0  0  0
   -8.4994  -12.2668   11.5803 C   0  0  0  0  0  0  0  0  0  0  0  0
   -8.0626  -10.8007   11.5997 C   0  0  0  0  0  0  0  0  0  0  0  0
   -5.3673  -16.2398   12.5164 C   0  0  0  0  0  0  0  0  0  0  0  0
   -9.0941  -17.6441   10.7666 C   0  0  0  0  0  0  0  0  0  0  0  0
  -10.2541  -17.3299   10.2538 N   0  0  0  0  0  0  0  0  0  0  0  0
  -10.9823  -18.4719   10.1078 C   0  0  0  0  0  0  0  0  0  0  0  0
  -10.2123  -19.5003   10.5569 C   0  0  0  0  0  0  0  0  0  0  0  0
   -9.0424  -18.9724   10.9571 O   0  0  0  0  0  0  0  0  0  0  0  0
  -12.3482  -18.5753    9.5667 C   0  0  0  0  0  0  0  0  0  0  0  0
  -12.9363  -17.5762    9.2052 O   0  0  0  0  0  0  0  0  0  0  0  0
  -12.9459  -19.7804    9.4742 O   0  0  0  0  0  0  0  0  0  0  0  0
  -14.2843  -19.8096    8.9119 C   0  0  0  0  0  0  0  0  0  0  0  0
  -14.7946  -21.2523    8.8853 C   0  0  0  0  0  0  0  0  0  0  0  0
  1  2  1  0
  1 12  1  0
  2  3  2  0
  2  4  1  0
  4  5  2  0
  4  8  1  0
  5  6  1  0
  5 11  1  0
  6  7  1  0
  7  8  2  0
  8  9  1  0
  9 10  1  0
 12 13  2  0
 12 16  1  0
 13 14  1  0
 14 15  2  0
 14 17  1  0
 15 16  1  0
 17 18  2  0
 17 19  1  0
 19 20  1  0
 20 21  1  0
M  END
>  <Gold.Gold.Protein.RotatedWaterAtoms>  (112) 


>  <Gold.Id.Protein>  (112) 


>  <Gold.PLP.Chemscore.CHOScore>  (112) 
0.0000

>  <Gold.PLP.Chemscore.Hbond>  (112) 
0.9920

>  <Gold.PLP.Chemscore.Internal.Correction>  (112) 
0.0781

>  <Gold.PLP.Chemscore.Metal>  (112) 
0.0000

>  <Gold.PLP.Fitness>  (112) 
53.0455

>  <Gold.PLP.PLP>  (112) 
-51.6100

>  <Gold.PLP.ligand.clash>  (112) 
0.0000

>  <Gold.PLP.ligand.torsion>  (112) 
0.8093

>  <Gold.PLP.part.buried>  (112) 
-10.9483

>  <Gold.PLP.part.hbond>  (112) 
-2.8441

>  <Gold.PLP.part.metal>  (112) 
0.0000

>  <Gold.PLP.part.nonpolar>  (112) 
-38.8782

>  <Gold.PLP.part.repulsive>  (112) 
0.6870

>  <Gold.Protein.RotatedAtoms>  (112) 


>  <Gold.Protein.RotatedTorsions>  (112) 


>  <Gold.Protein.RotatedWaterAtoms>  (112) 


>  <Gold.Version>  (112) 
5.3.0

>  <PLP.Chemscore.CHOScore>  (112) 


>  <PLP.Chemscore.Hbond>  (112) 


>  <PLP.Chemscore.Internal.Correction>  (112) 


>  <PLP.Chemscore.Metal>  (112) 


>  <PLP.Fitness>  (112) 


>  <PLP.PLP>  (112) 


>  <PLP.ligand.clash>  (112) 


>  <PLP.ligand.torsion>  (112) 


>  <PLP.part.buried>  (112) 


>  <PLP.part.hbond>  (112) 


>  <PLP.part.metal>  (112) 


>  <PLP.part.nonpolar>  (112) 


>  <PLP.part.repulsive>  (112) 


>  <Version>  (112) 


$$$$
3112|Compound_1919|Compounds_3D_F|sdf|559|dock1|1
     RDKit          3D

 28 30  0  0  0  0  0  0  0  0999 V2000
   -7.0555  -19.4898   10.1908 O   0  0  0  0  0  0  0  0  0  0  0  0
   -8.1995  -19.0675   10.7760 C   0  0  0  0  0  0  0  0  0  0  0  0
   -8.3587  -17.7125   11.1647 C   0  0  0  0  0  0  0  0  0  0  0  0
   -7.4007  -16.8083   10.9718 N   0  0  0  0  0  0  0  0  0  0  0  0
   -7.5963  -15.5642   11.3493 C   0  0  0  0  0  0  0  0  0  0  0  0
   -8.7962  -15.1832   11.9494 C   0  0  0  0  0  0  0  0  0  0  0  0
   -9.7571  -16.0598   12.1489 N   0  0  0  0  0  0  0  0  0  0  0  0
   -9.5796  -17.3291   11.7736 C   0  0  0  0  0  0  0  0  0  0  0  0
  -10.5274  -18.2571   11.9555 N   0  0  0  0  0  0  0  0  0  0  0  0
  -10.3254  -19.5034   11.5746 C   0  0  0  0  0  0  0  0  0  0  0  0
   -9.1975  -19.9058   10.9952 N   0  0  0  0  0  0  0  0  0  0  0  0
  -11.3331  -20.4331   11.7822 N   0  0  0  0  0  0  0  0  0  0  0  0
  -12.1620  -20.7662   10.7729 C   0  0  0  0  0  0  0  0  0  0  0  0
  -12.0246  -20.2514    9.6791 O   0  0  0  0  0  0  0  0  0  0  0  0
  -13.2327  -21.7532   10.9933 C   0  0  0  0  0  0  0  0  0  0  0  0
  -13.8428  -22.1069   12.1728 C   0  0  0  0  0  0  0  0  0  0  0  0
  -14.7487  -23.0372   11.8625 O   0  0  0  0  0  0  0  0  0  0  0  0
  -14.7777  -23.2973   10.6853 N   0  0  0  0  0  0  0  0  0  0  0  0
  -13.9187  -22.5983   10.0034 C   0  0  0  0  0  0  0  0  0  0  0  0
  -13.6720  -22.6498    8.5176 C   0  0  0  0  0  0  0  0  0  0  0  0
  -14.0737  -21.3159    7.8874 C   0  0  0  0  0  0  0  0  0  0  0  0
  -13.5473  -21.5545   13.5434 C   0  0  0  0  0  0  0  0  0  0  0  0
   -6.5128  -14.5401   11.1324 C   0  0  0  0  0  0  0  0  0  0  0  0
   -5.8047  -14.8422    9.9288 O   0  0  0  0  0  0  0  0  0  0  0  0
   -5.5416  -14.5654   12.3149 C   0  0  0  0  0  0  0  0  0  0  0  0
   -4.6376  -13.4630   12.2128 O   0  0  0  0  0  0  0  0  0  0  0  0
   -4.7530  -15.8757   12.2999 C   0  0  0  0  0  0  0  0  0  0  0  0
   -3.7274  -15.8033   11.3073 O   0  0  0  0  0  0  0  0  0  0  0  0
  1  2  1  0
  2  3  2  0
  2 11  1  0
  3  4  1  0
  3  8  1  0
  4  5  2  0
  5  6  1  0
  5 23  1  0
  6  7  2  0
  7  8  1  0
  8  9  2  0
  9 10  1  0
 10 11  2  0
 10 12  1  0
 12 13  1  0
 13 14  2  0
 13 15  1  0
 15 16  2  0
 15 19  1  0
 16 17  1  0
 16 22  1  0
 17 18  1  0
 18 19  2  0
 19 20  1  0
 20 21  1  0
 23 24  1  0
 23 25  1  0
 25 26  1  0
 25 27  1  0
 27 28  1  0
M  END
>  <Gold.Gold.Protein.RotatedWaterAtoms>  (113) 


>  <Gold.Id.Protein>  (113) 


>  <Gold.PLP.Chemscore.CHOScore>  (113) 
0.0000

>  <Gold.PLP.Chemscore.Hbond>  (113) 
4.8085

>  <Gold.PLP.Chemscore.Internal.Correction>  (113) 
1.1669

>  <Gold.PLP.Chemscore.Metal>  (113) 
0.0000

>  <Gold.PLP.Fitness>  (113) 
62.3246

>  <Gold.PLP.PLP>  (113) 
-50.6361

>  <Gold.PLP.ligand.clash>  (113) 
0.0000

>  <Gold.PLP.ligand.torsion>  (113) 
1.9520

>  <Gold.PLP.part.buried>  (113) 
-8.3619

>  <Gold.PLP.part.hbond>  (113) 
-9.8486

>  <Gold.PLP.part.metal>  (113) 
0.0000

>  <Gold.PLP.part.nonpolar>  (113) 
-32.5785

>  <Gold.PLP.part.repulsive>  (113) 
0.1853

>  <Gold.Protein.RotatedAtoms>  (113) 


>  <Gold.Protein.RotatedTorsions>  (113) 


>  <Gold.Protein.RotatedWaterAtoms>  (113) 


>  <Gold.Version>  (113) 
5.3.0

>  <PLP.Chemscore.CHOScore>  (113) 


>  <PLP.Chemscore.Hbond>  (113) 


>  <PLP.Chemscore.Internal.Correction>  (113) 


>  <PLP.Chemscore.Metal>  (113) 


>  <PLP.Fitness>  (113) 


>  <PLP.PLP>  (113) 


>  <PLP.ligand.clash>  (113) 


>  <PLP.ligand.torsion>  (113) 


>  <PLP.part.buried>  (113) 


>  <PLP.part.hbond>  (113) 


>  <PLP.part.metal>  (113) 


>  <PLP.part.nonpolar>  (113) 


>  <PLP.part.repulsive>  (113) 


>  <Version>  (113) 


$$$$
3113|Compound_1919|Compounds_3D_F|sdf|559|dock2|1
     RDKit          3D

 28 30  0  0  0  0  0  0  0  0999 V2000
   -6.9954  -19.5198   10.3285 O   0  0  0  0  0  0  0  0  0  0  0  0
   -8.1923  -19.1325   10.8254 C   0  0  0  0  0  0  0  0  0  0  0  0
   -8.4200  -17.7839   11.2020 C   0  0  0  0  0  0  0  0  0  0  0  0
   -7.4769  -16.8518   11.0832 N   0  0  0  0  0  0  0  0  0  0  0  0
   -7.7367  -15.6151   11.4457 C   0  0  0  0  0  0  0  0  0  0  0  0
   -8.9894  -15.2708   11.9533 C   0  0  0  0  0  0  0  0  0  0  0  0
   -9.9367  -16.1754   12.0784 N   0  0  0  0  0  0  0  0  0  0  0  0
   -9.6943  -17.4379   11.7166 C   0  0  0  0  0  0  0  0  0  0  0  0
  -10.6258  -18.3935   11.8252 N   0  0  0  0  0  0  0  0  0  0  0  0
  -10.3593  -19.6323   11.4597 C   0  0  0  0  0  0  0  0  0  0  0  0
   -9.1793  -20.0001   10.9674 N   0  0  0  0  0  0  0  0  0  0  0  0
  -11.3523  -20.5914   11.5894 N   0  0  0  0  0  0  0  0  0  0  0  0
  -12.0231  -21.0191   10.5013 C   0  0  0  0  0  0  0  0  0  0  0  0
  -11.7559  -20.5638    9.4052 O   0  0  0  0  0  0  0  0  0  0  0  0
  -13.0783  -22.0374   10.6388 C   0  0  0  0  0  0  0  0  0  0  0  0
  -13.1859  -23.0395   11.5731 C   0  0  0  0  0  0  0  0  0  0  0  0
  -14.3106  -23.6996   11.2876 O   0  0  0  0  0  0  0  0  0  0  0  0
  -14.8933  -23.2528   10.3309 N   0  0  0  0  0  0  0  0  0  0  0  0
  -14.2818  -22.2279    9.8142 C   0  0  0  0  0  0  0  0  0  0  0  0
  -14.7098  -21.4145    8.6198 C   0  0  0  0  0  0  0  0  0  0  0  0
  -13.8574  -21.7979    7.4097 C   0  0  0  0  0  0  0  0  0  0  0  0
  -12.2249  -23.3342   12.6958 C   0  0  0  0  0  0  0  0  0  0  0  0
   -6.6701  -14.5593   11.3127 C   0  0  0  0  0  0  0  0  0  0  0  0
   -6.0830  -14.6354   10.0124 O   0  0  0  0  0  0  0  0  0  0  0  0
   -5.5906  -14.7870   12.3733 C   0  0  0  0  0  0  0  0  0  0  0  0
   -4.5761  -13.7887   12.2427 O   0  0  0  0  0  0  0  0  0  0  0  0
   -4.9715  -16.1724   12.1823 C   0  0  0  0  0  0  0  0  0  0  0  0
   -4.3430  -16.2409   10.9007 O   0  0  0  0  0  0  0  0  0  0  0  0
  1  2  1  0
  2  3  2  0
  2 11  1  0
  3  4  1  0
  3  8  1  0
  4  5  2  0
  5  6  1  0
  5 23  1  0
  6  7  2  0
  7  8  1  0
  8  9  2  0
  9 10  1  0
 10 11  2  0
 10 12  1  0
 12 13  1  0
 13 14  2  0
 13 15  1  0
 15 16  2  0
 15 19  1  0
 16 17  1  0
 16 22  1  0
 17 18  1  0
 18 19  2  0
 19 20  1  0
 20 21  1  0
 23 24  1  0
 23 25  1  0
 25 26  1  0
 25 27  1  0
 27 28  1  0
M  END
>  <Gold.Gold.Protein.RotatedWaterAtoms>  (114) 


>  <Gold.Id.Protein>  (114) 


>  <Gold.PLP.Chemscore.CHOScore>  (114) 
0.0000

>  <Gold.PLP.Chemscore.Hbond>  (114) 
4.9284

>  <Gold.PLP.Chemscore.Internal.Correction>  (114) 
1.0445

>  <Gold.PLP.Chemscore.Metal>  (114) 
0.0000

>  <Gold.PLP.Fitness>  (114) 
59.6906

>  <Gold.PLP.PLP>  (114) 
-46.9464

>  <Gold.PLP.ligand.clash>  (114) 
0.0000

>  <Gold.PLP.ligand.torsion>  (114) 
1.5428

>  <Gold.PLP.part.buried>  (114) 
-7.5995

>  <Gold.PLP.part.hbond>  (114) 
-7.6640

>  <Gold.PLP.part.metal>  (114) 
0.0000

>  <Gold.PLP.part.nonpolar>  (114) 
-31.4443

>  <Gold.PLP.part.repulsive>  (114) 
0.1158

>  <Gold.Protein.RotatedAtoms>  (114) 


>  <Gold.Protein.RotatedTorsions>  (114) 


>  <Gold.Protein.RotatedWaterAtoms>  (114) 


>  <Gold.Version>  (114) 
5.3.0

>  <PLP.Chemscore.CHOScore>  (114) 


>  <PLP.Chemscore.Hbond>  (114) 


>  <PLP.Chemscore.Internal.Correction>  (114) 


>  <PLP.Chemscore.Metal>  (114) 


>  <PLP.Fitness>  (114) 


>  <PLP.PLP>  (114) 


>  <PLP.ligand.clash>  (114) 


>  <PLP.ligand.torsion>  (114) 


>  <PLP.part.buried>  (114) 


>  <PLP.part.hbond>  (114) 


>  <PLP.part.metal>  (114) 


>  <PLP.part.nonpolar>  (114) 


>  <PLP.part.repulsive>  (114) 


>  <Version>  (114) 


$$$$
3114|Compound_1919|Compounds_3D_F|sdf|559|dock3|1
     RDKit          3D

 28 30  0  0  0  0  0  0  0  0999 V2000
  -10.7181  -15.4965   13.1538 O   0  0  0  0  0  0  0  0  0  0  0  0
  -10.3177  -16.5288   12.3769 C   0  0  0  0  0  0  0  0  0  0  0  0
   -9.0543  -16.5049   11.7323 C   0  0  0  0  0  0  0  0  0  0  0  0
   -8.2173  -15.4778   11.8632 N   0  0  0  0  0  0  0  0  0  0  0  0
   -7.0569  -15.5028   11.2458 C   0  0  0  0  0  0  0  0  0  0  0  0
   -6.6949  -16.5935   10.4556 C   0  0  0  0  0  0  0  0  0  0  0  0
   -7.5058  -17.6199   10.3129 N   0  0  0  0  0  0  0  0  0  0  0  0
   -8.6897  -17.6154   10.9309 C   0  0  0  0  0  0  0  0  0  0  0  0
   -9.5487  -18.6359   10.8161 N   0  0  0  0  0  0  0  0  0  0  0  0
  -10.7112  -18.6052   11.4381 C   0  0  0  0  0  0  0  0  0  0  0  0
  -11.0918  -17.5860   12.2038 N   0  0  0  0  0  0  0  0  0  0  0  0
  -11.5715  -19.6829   11.2919 N   0  0  0  0  0  0  0  0  0  0  0  0
  -11.8410  -20.4786   12.3458 C   0  0  0  0  0  0  0  0  0  0  0  0
  -11.3298  -20.2500   13.4259 O   0  0  0  0  0  0  0  0  0  0  0  0
  -12.7543  -21.6237   12.1907 C   0  0  0  0  0  0  0  0  0  0  0  0
  -13.8784  -21.7233   11.4064 C   0  0  0  0  0  0  0  0  0  0  0  0
  -14.3644  -22.9514   11.6013 O   0  0  0  0  0  0  0  0  0  0  0  0
  -13.7107  -23.6027   12.3778 N   0  0  0  0  0  0  0  0  0  0  0  0
  -12.6837  -22.9462   12.8315 C   0  0  0  0  0  0  0  0  0  0  0  0
  -11.6477  -23.4331   13.8116 C   0  0  0  0  0  0  0  0  0  0  0  0
  -11.6356  -22.5189   15.0372 C   0  0  0  0  0  0  0  0  0  0  0  0
  -14.4486  -20.6578   10.5061 C   0  0  0  0  0  0  0  0  0  0  0  0
   -6.1091  -14.3407   11.3923 C   0  0  0  0  0  0  0  0  0  0  0  0
   -4.8631  -14.8044   11.9154 O   0  0  0  0  0  0  0  0  0  0  0  0
   -6.7105  -13.3083   12.3486 C   0  0  0  0  0  0  0  0  0  0  0  0
   -7.9641  -12.8547   11.8332 O   0  0  0  0  0  0  0  0  0  0  0  0
   -5.7552  -12.1218   12.4854 C   0  0  0  0  0  0  0  0  0  0  0  0
   -4.6141  -12.5147   13.2508 O   0  0  0  0  0  0  0  0  0  0  0  0
  1  2  1  0
  2  3  2  0
  2 11  1  0
  3  4  1  0
  3  8  1  0
  4  5  2  0
  5  6  1  0
  5 23  1  0
  6  7  2  0
  7  8  1  0
  8  9  2  0
  9 10  1  0
 10 11  2  0
 10 12  1  0
 12 13  1  0
 13 14  2  0
 13 15  1  0
 15 16  2  0
 15 19  1  0
 16 17  1  0
 16 22  1  0
 17 18  1  0
 18 19  2  0
 19 20  1  0
 20 21  1  0
 23 24  1  0
 23 25  1  0
 25 26  1  0
 25 27  1  0
 27 28  1  0
M  END
>  <Gold.Gold.Protein.RotatedWaterAtoms>  (115) 


>  <Gold.Id.Protein>  (115) 


>  <Gold.PLP.Chemscore.CHOScore>  (115) 
0.0000

>  <Gold.PLP.Chemscore.Hbond>  (115) 
5.4139

>  <Gold.PLP.Chemscore.Internal.Correction>  (115) 
0.8314

>  <Gold.PLP.Chemscore.Metal>  (115) 
0.0000

>  <Gold.PLP.Fitness>  (115) 
65.9504

>  <Gold.PLP.PLP>  (115) 
-51.3411

>  <Gold.PLP.ligand.clash>  (115) 
0.0000

>  <Gold.PLP.ligand.torsion>  (115) 
1.2319

>  <Gold.PLP.part.buried>  (115) 
-5.5044

>  <Gold.PLP.part.hbond>  (115) 
-14.0971

>  <Gold.PLP.part.metal>  (115) 
0.0000

>  <Gold.PLP.part.nonpolar>  (115) 
-31.8354

>  <Gold.PLP.part.repulsive>  (115) 
0.2076

>  <Gold.Protein.RotatedAtoms>  (115) 


>  <Gold.Protein.RotatedTorsions>  (115) 


>  <Gold.Protein.RotatedWaterAtoms>  (115) 


>  <Gold.Version>  (115) 
5.3.0

>  <PLP.Chemscore.CHOScore>  (115) 


>  <PLP.Chemscore.Hbond>  (115) 


>  <PLP.Chemscore.Internal.Correction>  (115) 


>  <PLP.Chemscore.Metal>  (115) 


>  <PLP.Fitness>  (115) 


>  <PLP.PLP>  (115) 


>  <PLP.ligand.clash>  (115) 


>  <PLP.ligand.torsion>  (115) 


>  <PLP.part.buried>  (115) 


>  <PLP.part.hbond>  (115) 


>  <PLP.part.metal>  (115) 


>  <PLP.part.nonpolar>  (115) 


>  <PLP.part.repulsive>  (115) 


>  <Version>  (115) 


$$$$
3115|Compound_1919|Compounds_3D_F|sdf|559|dock4|1
     RDKit          3D

 28 30  0  0  0  0  0  0  0  0999 V2000
  -10.6089  -15.4349   13.2494 O   0  0  0  0  0  0  0  0  0  0  0  0
  -10.1994  -16.4336   12.4342 C   0  0  0  0  0  0  0  0  0  0  0  0
   -8.9299  -16.3814   11.8035 C   0  0  0  0  0  0  0  0  0  0  0  0
   -8.0959  -15.3597   11.9849 N   0  0  0  0  0  0  0  0  0  0  0  0
   -6.9295  -15.3577   11.3783 C   0  0  0  0  0  0  0  0  0  0  0  0
   -6.5583  -16.4142   10.5470 C   0  0  0  0  0  0  0  0  0  0  0  0
   -7.3661  -17.4347   10.3540 N   0  0  0  0  0  0  0  0  0  0  0  0
   -8.5559  -17.4573   10.9601 C   0  0  0  0  0  0  0  0  0  0  0  0
   -9.4121  -18.4732   10.7948 N   0  0  0  0  0  0  0  0  0  0  0  0
  -10.5806  -18.4697   11.4062 C   0  0  0  0  0  0  0  0  0  0  0  0
  -10.9702  -17.4836   12.2099 N   0  0  0  0  0  0  0  0  0  0  0  0
  -11.4378  -19.5413   11.2071 N   0  0  0  0  0  0  0  0  0  0  0  0
  -12.2658  -19.9354   12.1950 C   0  0  0  0  0  0  0  0  0  0  0  0
  -12.2614  -19.3494   13.2611 O   0  0  0  0  0  0  0  0  0  0  0  0
  -13.1759  -21.0740   11.9840 C   0  0  0  0  0  0  0  0  0  0  0  0
  -13.8895  -21.7855   12.9185 C   0  0  0  0  0  0  0  0  0  0  0  0
  -14.5680  -22.7163   12.2435 O   0  0  0  0  0  0  0  0  0  0  0  0
  -14.3739  -22.6759   11.0540 N   0  0  0  0  0  0  0  0  0  0  0  0
  -13.5515  -21.7256   10.7195 C   0  0  0  0  0  0  0  0  0  0  0  0
  -13.0771  -21.3729    9.3332 C   0  0  0  0  0  0  0  0  0  0  0  0
  -14.2563  -20.8606    8.5056 C   0  0  0  0  0  0  0  0  0  0  0  0
  -13.9026  -21.5596   14.4083 C   0  0  0  0  0  0  0  0  0  0  0  0
   -5.9850  -14.2016   11.5821 C   0  0  0  0  0  0  0  0  0  0  0  0
   -4.8129  -14.6571   12.2602 O   0  0  0  0  0  0  0  0  0  0  0  0
   -6.6722  -13.1222   12.4215 C   0  0  0  0  0  0  0  0  0  0  0  0
   -7.9177  -12.7686   11.8161 O   0  0  0  0  0  0  0  0  0  0  0  0
   -5.7736  -11.8871   12.4997 C   0  0  0  0  0  0  0  0  0  0  0  0
   -4.6018  -12.1976   13.2565 O   0  0  0  0  0  0  0  0  0  0  0  0
  1  2  1  0
  2  3  2  0
  2 11  1  0
  3  4  1  0
  3  8  1  0
  4  5  2  0
  5  6  1  0
  5 23  1  0
  6  7  2  0
  7  8  1  0
  8  9  2  0
  9 10  1  0
 10 11  2  0
 10 12  1  0
 12 13  1  0
 13 14  2  0
 13 15  1  0
 15 16  2  0
 15 19  1  0
 16 17  1  0
 16 22  1  0
 17 18  1  0
 18 19  2  0
 19 20  1  0
 20 21  1  0
 23 24  1  0
 23 25  1  0
 25 26  1  0
 25 27  1  0
 27 28  1  0
M  END
>  <Gold.Gold.Protein.RotatedWaterAtoms>  (116) 


>  <Gold.Id.Protein>  (116) 


>  <Gold.PLP.Chemscore.CHOScore>  (116) 
0.0000

>  <Gold.PLP.Chemscore.Hbond>  (116) 
4.4160

>  <Gold.PLP.Chemscore.Internal.Correction>  (116) 
0.7765

>  <Gold.PLP.Chemscore.Metal>  (116) 
0.0000

>  <Gold.PLP.Fitness>  (116) 
64.7974

>  <Gold.PLP.PLP>  (116) 
-51.6881

>  <Gold.PLP.ligand.clash>  (116) 
0.0000

>  <Gold.PLP.ligand.torsion>  (116) 
0.4576

>  <Gold.PLP.part.buried>  (116) 
-6.5573

>  <Gold.PLP.part.hbond>  (116) 
-12.9044

>  <Gold.PLP.part.metal>  (116) 
0.0000

>  <Gold.PLP.part.nonpolar>  (116) 
-35.5884

>  <Gold.PLP.part.repulsive>  (116) 
0.3491

>  <Gold.Protein.RotatedAtoms>  (116) 


>  <Gold.Protein.RotatedTorsions>  (116) 


>  <Gold.Protein.RotatedWaterAtoms>  (116) 


>  <Gold.Version>  (116) 
5.3.0

>  <PLP.Chemscore.CHOScore>  (116) 


>  <PLP.Chemscore.Hbond>  (116) 


>  <PLP.Chemscore.Internal.Correction>  (116) 


>  <PLP.Chemscore.Metal>  (116) 


>  <PLP.Fitness>  (116) 


>  <PLP.PLP>  (116) 


>  <PLP.ligand.clash>  (116) 


>  <PLP.ligand.torsion>  (116) 


>  <PLP.part.buried>  (116) 


>  <PLP.part.hbond>  (116) 


>  <PLP.part.metal>  (116) 


>  <PLP.part.nonpolar>  (116) 


>  <PLP.part.repulsive>  (116) 


>  <Version>  (116) 


$$$$
3116|Compound_1919|Compounds_3D_F|sdf|559|dock5|1
     RDKit          3D

 28 30  0  0  0  0  0  0  0  0999 V2000
  -10.6128  -15.4781   13.1246 O   0  0  0  0  0  0  0  0  0  0  0  0
  -10.1648  -16.4863   12.3421 C   0  0  0  0  0  0  0  0  0  0  0  0
   -8.9023  -16.4013   11.7007 C   0  0  0  0  0  0  0  0  0  0  0  0
   -8.1128  -15.3384   11.8401 N   0  0  0  0  0  0  0  0  0  0  0  0
   -6.9512  -15.3071   11.2253 C   0  0  0  0  0  0  0  0  0  0  0  0
   -6.5388  -16.3753   10.4290 C   0  0  0  0  0  0  0  0  0  0  0  0
   -7.3023  -17.4362   10.2778 N   0  0  0  0  0  0  0  0  0  0  0  0
   -8.4865  -17.4890   10.8930 C   0  0  0  0  0  0  0  0  0  0  0  0
   -9.2984  -18.5465   10.7698 N   0  0  0  0  0  0  0  0  0  0  0  0
  -10.4624  -18.5721   11.3892 C   0  0  0  0  0  0  0  0  0  0  0  0
  -10.8901  -17.5761   12.1605 N   0  0  0  0  0  0  0  0  0  0  0  0
  -11.2730  -19.6864   11.2341 N   0  0  0  0  0  0  0  0  0  0  0  0
  -11.9203  -20.2030   12.2975 C   0  0  0  0  0  0  0  0  0  0  0  0
  -11.7938  -19.6900   13.3934 O   0  0  0  0  0  0  0  0  0  0  0  0
  -12.7809  -21.3869   12.1332 C   0  0  0  0  0  0  0  0  0  0  0  0
  -13.2424  -22.2514   13.0967 C   0  0  0  0  0  0  0  0  0  0  0  0
  -13.9845  -23.1608   12.4605 O   0  0  0  0  0  0  0  0  0  0  0  0
  -14.0403  -22.9788   11.2697 N   0  0  0  0  0  0  0  0  0  0  0  0
  -13.3650  -21.9315   10.8976 C   0  0  0  0  0  0  0  0  0  0  0  0
  -13.2069  -21.3954    9.4980 C   0  0  0  0  0  0  0  0  0  0  0  0
  -13.9158  -20.0453    9.3859 C   0  0  0  0  0  0  0  0  0  0  0  0
  -12.9652  -22.1856   14.5765 C   0  0  0  0  0  0  0  0  0  0  0  0
   -6.0569  -14.1046   11.3814 C   0  0  0  0  0  0  0  0  0  0  0  0
   -4.7938  -14.5146   11.9082 O   0  0  0  0  0  0  0  0  0  0  0  0
   -6.7082  -13.1046   12.3395 C   0  0  0  0  0  0  0  0  0  0  0  0
   -7.9633  -12.6794   11.8039 O   0  0  0  0  0  0  0  0  0  0  0  0
   -5.7908  -11.8934   12.5142 C   0  0  0  0  0  0  0  0  0  0  0  0
   -4.5962  -12.2937   13.1887 O   0  0  0  0  0  0  0  0  0  0  0  0
  1  2  1  0
  2  3  2  0
  2 11  1  0
  3  4  1  0
  3  8  1  0
  4  5  2  0
  5  6  1  0
  5 23  1  0
  6  7  2  0
  7  8  1  0
  8  9  2  0
  9 10  1  0
 10 11  2  0
 10 12  1  0
 12 13  1  0
 13 14  2  0
 13 15  1  0
 15 16  2  0
 15 19  1  0
 16 17  1  0
 16 22  1  0
 17 18  1  0
 18 19  2  0
 19 20  1  0
 20 21  1  0
 23 24  1  0
 23 25  1  0
 25 26  1  0
 25 27  1  0
 27 28  1  0
M  END
>  <Gold.Gold.Protein.RotatedWaterAtoms>  (117) 


>  <Gold.Id.Protein>  (117) 


>  <Gold.PLP.Chemscore.CHOScore>  (117) 
0.0000

>  <Gold.PLP.Chemscore.Hbond>  (117) 
5.2763

>  <Gold.PLP.Chemscore.Internal.Correction>  (117) 
0.6326

>  <Gold.PLP.Chemscore.Metal>  (117) 
0.0000

>  <Gold.PLP.Fitness>  (117) 
65.1672

>  <Gold.PLP.PLP>  (117) 
-49.8567

>  <Gold.PLP.ligand.clash>  (117) 
0.0000

>  <Gold.PLP.ligand.torsion>  (117) 
0.5754

>  <Gold.PLP.part.buried>  (117) 
-6.4119

>  <Gold.PLP.part.hbond>  (117) 
-12.5111

>  <Gold.PLP.part.metal>  (117) 
0.0000

>  <Gold.PLP.part.nonpolar>  (117) 
-32.5237

>  <Gold.PLP.part.repulsive>  (117) 
0.2495

>  <Gold.Protein.RotatedAtoms>  (117) 


>  <Gold.Protein.RotatedTorsions>  (117) 


>  <Gold.Protein.RotatedWaterAtoms>  (117) 


>  <Gold.Version>  (117) 
5.3.0

>  <PLP.Chemscore.CHOScore>  (117) 


>  <PLP.Chemscore.Hbond>  (117) 


>  <PLP.Chemscore.Internal.Correction>  (117) 


>  <PLP.Chemscore.Metal>  (117) 


>  <PLP.Fitness>  (117) 


>  <PLP.PLP>  (117) 


>  <PLP.ligand.clash>  (117) 


>  <PLP.ligand.torsion>  (117) 


>  <PLP.part.buried>  (117) 


>  <PLP.part.hbond>  (117) 


>  <PLP.part.metal>  (117) 


>  <PLP.part.nonpolar>  (117) 


>  <PLP.part.repulsive>  (117) 


>  <Version>  (117) 


$$$$
3117|Compound_1919|Compounds_3D_F|sdf|559|dock6|1
     RDKit          3D

 28 30  0  0  0  0  0  0  0  0999 V2000
  -10.5997  -15.5019   13.0215 O   0  0  0  0  0  0  0  0  0  0  0  0
  -10.1023  -16.6097   12.4256 C   0  0  0  0  0  0  0  0  0  0  0  0
   -8.7853  -16.6212   11.8986 C   0  0  0  0  0  0  0  0  0  0  0  0
   -7.9908  -15.5552   11.9675 N   0  0  0  0  0  0  0  0  0  0  0  0
   -6.7777  -15.6157   11.4645 C   0  0  0  0  0  0  0  0  0  0  0  0
   -6.3158  -16.7845   10.8598 C   0  0  0  0  0  0  0  0  0  0  0  0
   -7.0833  -17.8504   10.7814 N   0  0  0  0  0  0  0  0  0  0  0  0
   -8.3194  -17.8110   11.2856 C   0  0  0  0  0  0  0  0  0  0  0  0
   -9.1375  -18.8694   11.2298 N   0  0  0  0  0  0  0  0  0  0  0  0
  -10.3533  -18.8027   11.7363 C   0  0  0  0  0  0  0  0  0  0  0  0
  -10.8296  -17.7086   12.3246 N   0  0  0  0  0  0  0  0  0  0  0  0
  -11.1683  -19.9217   11.6568 N   0  0  0  0  0  0  0  0  0  0  0  0
  -12.5011  -19.7769   11.5170 C   0  0  0  0  0  0  0  0  0  0  0  0
  -12.9883  -18.6636   11.4594 O   0  0  0  0  0  0  0  0  0  0  0  0
  -13.3671  -20.9653   11.4332 C   0  0  0  0  0  0  0  0  0  0  0  0
  -14.3064  -21.2758   10.4793 C   0  0  0  0  0  0  0  0  0  0  0  0
  -14.8265  -22.4531   10.8339 O   0  0  0  0  0  0  0  0  0  0  0  0
  -14.3487  -22.8967   11.8485 N   0  0  0  0  0  0  0  0  0  0  0  0
  -13.4345  -22.1170   12.3463 C   0  0  0  0  0  0  0  0  0  0  0  0
  -12.6237  -22.3410   13.5967 C   0  0  0  0  0  0  0  0  0  0  0  0
  -11.1605  -22.5761   13.2205 C   0  0  0  0  0  0  0  0  0  0  0  0
  -14.6756  -20.4507    9.2735 C   0  0  0  0  0  0  0  0  0  0  0  0
   -5.8778  -14.4097   11.5410 C   0  0  0  0  0  0  0  0  0  0  0  0
   -4.6613  -14.7634   12.2015 O   0  0  0  0  0  0  0  0  0  0  0  0
   -6.5787  -13.2980   12.3252 C   0  0  0  0  0  0  0  0  0  0  0  0
   -7.7434  -12.8743   11.6135 O   0  0  0  0  0  0  0  0  0  0  0  0
   -5.6253  -12.1143   12.4954 C   0  0  0  0  0  0  0  0  0  0  0  0
   -4.5927  -12.4632   13.4198 O   0  0  0  0  0  0  0  0  0  0  0  0
  1  2  1  0
  2  3  2  0
  2 11  1  0
  3  4  1  0
  3  8  1  0
  4  5  2  0
  5  6  1  0
  5 23  1  0
  6  7  2  0
  7  8  1  0
  8  9  2  0
  9 10  1  0
 10 11  2  0
 10 12  1  0
 12 13  1  0
 13 14  2  0
 13 15  1  0
 15 16  2  0
 15 19  1  0
 16 17  1  0
 16 22  1  0
 17 18  1  0
 18 19  2  0
 19 20  1  0
 20 21  1  0
 23 24  1  0
 23 25  1  0
 25 26  1  0
 25 27  1  0
 27 28  1  0
M  END
>  <Gold.Gold.Protein.RotatedWaterAtoms>  (118) 


>  <Gold.Id.Protein>  (118) 


>  <Gold.PLP.Chemscore.CHOScore>  (118) 
0.0000

>  <Gold.PLP.Chemscore.Hbond>  (118) 
6.1679

>  <Gold.PLP.Chemscore.Internal.Correction>  (118) 
0.6326

>  <Gold.PLP.Chemscore.Metal>  (118) 
0.0000

>  <Gold.PLP.Fitness>  (118) 
65.6427

>  <Gold.PLP.PLP>  (118) 
-49.1725

>  <Gold.PLP.ligand.clash>  (118) 
0.0000

>  <Gold.PLP.ligand.torsion>  (118) 
1.3330

>  <Gold.PLP.part.buried>  (118) 
-7.0812

>  <Gold.PLP.part.hbond>  (118) 
-11.0639

>  <Gold.PLP.part.metal>  (118) 
0.0000

>  <Gold.PLP.part.nonpolar>  (118) 
-33.0070

>  <Gold.PLP.part.repulsive>  (118) 
0.3152

>  <Gold.Protein.RotatedAtoms>  (118) 


>  <Gold.Protein.RotatedTorsions>  (118) 


>  <Gold.Protein.RotatedWaterAtoms>  (118) 


>  <Gold.Version>  (118) 
5.3.0

>  <PLP.Chemscore.CHOScore>  (118) 


>  <PLP.Chemscore.Hbond>  (118) 


>  <PLP.Chemscore.Internal.Correction>  (118) 


>  <PLP.Chemscore.Metal>  (118) 


>  <PLP.Fitness>  (118) 


>  <PLP.PLP>  (118) 


>  <PLP.ligand.clash>  (118) 


>  <PLP.ligand.torsion>  (118) 


>  <PLP.part.buried>  (118) 


>  <PLP.part.hbond>  (118) 


>  <PLP.part.metal>  (118) 


>  <PLP.part.nonpolar>  (118) 


>  <PLP.part.repulsive>  (118) 


>  <Version>  (118) 


$$$$
3118|Compound_1919|Compounds_3D_F|sdf|559|dock7|1
     RDKit          3D

 28 30  0  0  0  0  0  0  0  0999 V2000
   -6.9402  -19.2788    9.7018 O   0  0  0  0  0  0  0  0  0  0  0  0
   -8.0683  -18.9779   10.3846 C   0  0  0  0  0  0  0  0  0  0  0  0
   -8.2776  -17.6738   10.9022 C   0  0  0  0  0  0  0  0  0  0  0  0
   -7.3836  -16.7007   10.7395 N   0  0  0  0  0  0  0  0  0  0  0  0
   -7.6238  -15.5081   11.2379 C   0  0  0  0  0  0  0  0  0  0  0  0
   -8.8045  -15.2530   11.9349 C   0  0  0  0  0  0  0  0  0  0  0  0
   -9.7025  -16.1992   12.1068 N   0  0  0  0  0  0  0  0  0  0  0  0
   -9.4790  -17.4183   11.6092 C   0  0  0  0  0  0  0  0  0  0  0  0
  -10.3621  -18.4134   11.7583 N   0  0  0  0  0  0  0  0  0  0  0  0
  -10.1157  -19.6076   11.2560 C   0  0  0  0  0  0  0  0  0  0  0  0
   -9.0042  -19.8901   10.5817 N   0  0  0  0  0  0  0  0  0  0  0  0
  -11.0570  -20.6102   11.4337 N   0  0  0  0  0  0  0  0  0  0  0  0
  -12.1148  -20.6973   10.6030 C   0  0  0  0  0  0  0  0  0  0  0  0
  -12.2426  -19.8962    9.6963 O   0  0  0  0  0  0  0  0  0  0  0  0
  -13.1150  -21.7618   10.7920 C   0  0  0  0  0  0  0  0  0  0  0  0
  -13.2483  -22.6356   11.8442 C   0  0  0  0  0  0  0  0  0  0  0  0
  -14.2999  -23.4075   11.5602 O   0  0  0  0  0  0  0  0  0  0  0  0
  -14.8171  -23.1354   10.5052 N   0  0  0  0  0  0  0  0  0  0  0  0
  -14.2231  -22.1470    9.9040 C   0  0  0  0  0  0  0  0  0  0  0  0
  -14.5865  -21.5331    8.5765 C   0  0  0  0  0  0  0  0  0  0  0  0
  -13.5715  -21.9673    7.5187 C   0  0  0  0  0  0  0  0  0  0  0  0
  -12.3797  -22.7079   13.0735 C   0  0  0  0  0  0  0  0  0  0  0  0
   -6.6126  -14.4062   11.0552 C   0  0  0  0  0  0  0  0  0  0  0  0
   -5.7674  -14.7134    9.9451 O   0  0  0  0  0  0  0  0  0  0  0  0
   -5.7633  -14.2769   12.3218 C   0  0  0  0  0  0  0  0  0  0  0  0
   -4.8966  -13.1468   12.2012 O   0  0  0  0  0  0  0  0  0  0  0  0
   -4.9275  -15.5441   12.5075 C   0  0  0  0  0  0  0  0  0  0  0  0
   -3.9129  -15.5973   11.5024 O   0  0  0  0  0  0  0  0  0  0  0  0
  1  2  1  0
  2  3  2  0
  2 11  1  0
  3  4  1  0
  3  8  1  0
  4  5  2  0
  5  6  1  0
  5 23  1  0
  6  7  2  0
  7  8  1  0
  8  9  2  0
  9 10  1  0
 10 11  2  0
 10 12  1  0
 12 13  1  0
 13 14  2  0
 13 15  1  0
 15 16  2  0
 15 19  1  0
 16 17  1  0
 16 22  1  0
 17 18  1  0
 18 19  2  0
 19 20  1  0
 20 21  1  0
 23 24  1  0
 23 25  1  0
 25 26  1  0
 25 27  1  0
 27 28  1  0
M  END
>  <Gold.Gold.Protein.RotatedWaterAtoms>  (119) 


>  <Gold.Id.Protein>  (119) 


>  <Gold.PLP.Chemscore.CHOScore>  (119) 
0.0000

>  <Gold.PLP.Chemscore.Hbond>  (119) 
5.1181

>  <Gold.PLP.Chemscore.Internal.Correction>  (119) 
0.6326

>  <Gold.PLP.Chemscore.Metal>  (119) 
0.0000

>  <Gold.PLP.Fitness>  (119) 
59.0609

>  <Gold.PLP.PLP>  (119) 
-47.2352

>  <Gold.PLP.ligand.clash>  (119) 
0.8955

>  <Gold.PLP.ligand.torsion>  (119) 
1.6328

>  <Gold.PLP.part.buried>  (119) 
-8.6325

>  <Gold.PLP.part.hbond>  (119) 
-8.8132

>  <Gold.PLP.part.metal>  (119) 
0.0000

>  <Gold.PLP.part.nonpolar>  (119) 
-30.1447

>  <Gold.PLP.part.repulsive>  (119) 
0.1171

>  <Gold.Protein.RotatedAtoms>  (119) 


>  <Gold.Protein.RotatedTorsions>  (119) 


>  <Gold.Protein.RotatedWaterAtoms>  (119) 


>  <Gold.Version>  (119) 
5.3.0

>  <PLP.Chemscore.CHOScore>  (119) 


>  <PLP.Chemscore.Hbond>  (119) 


>  <PLP.Chemscore.Internal.Correction>  (119) 


>  <PLP.Chemscore.Metal>  (119) 


>  <PLP.Fitness>  (119) 


>  <PLP.PLP>  (119) 


>  <PLP.ligand.clash>  (119) 


>  <PLP.ligand.torsion>  (119) 


>  <PLP.part.buried>  (119) 


>  <PLP.part.hbond>  (119) 


>  <PLP.part.metal>  (119) 


>  <PLP.part.nonpolar>  (119) 


>  <PLP.part.repulsive>  (119) 


>  <Version>  (119) 


$$$$
3119|Compound_1919|Compounds_3D_F|sdf|559|dock8|1
     RDKit          3D

 28 30  0  0  0  0  0  0  0  0999 V2000
  -10.5976  -15.3631   13.1044 O   0  0  0  0  0  0  0  0  0  0  0  0
  -10.1780  -16.4210   12.3734 C   0  0  0  0  0  0  0  0  0  0  0  0
   -8.8737  -16.4468   11.8162 C   0  0  0  0  0  0  0  0  0  0  0  0
   -8.0159  -15.4432   11.9872 N   0  0  0  0  0  0  0  0  0  0  0  0
   -6.8177  -15.5143   11.4509 C   0  0  0  0  0  0  0  0  0  0  0  0
   -6.4373  -16.6296   10.7049 C   0  0  0  0  0  0  0  0  0  0  0  0
   -7.2684  -17.6336   10.5239 N   0  0  0  0  0  0  0  0  0  0  0  0
   -8.4907  -17.5822   11.0595 C   0  0  0  0  0  0  0  0  0  0  0  0
   -9.3714  -18.5784   10.9029 N   0  0  0  0  0  0  0  0  0  0  0  0
  -10.5718  -18.5014   11.4436 C   0  0  0  0  0  0  0  0  0  0  0  0
  -10.9713  -17.4574   12.1650 N   0  0  0  0  0  0  0  0  0  0  0  0
  -11.4535  -19.5552   11.2565 N   0  0  0  0  0  0  0  0  0  0  0  0
  -11.8878  -20.2673   12.3152 C   0  0  0  0  0  0  0  0  0  0  0  0
  -11.5065  -19.9842   13.4353 O   0  0  0  0  0  0  0  0  0  0  0  0
  -12.8238  -21.3871   12.1167 C   0  0  0  0  0  0  0  0  0  0  0  0
  -12.7454  -22.6674   12.6098 C   0  0  0  0  0  0  0  0  0  0  0  0
  -13.8250  -23.3102   12.1585 O   0  0  0  0  0  0  0  0  0  0  0  0
  -14.5370  -22.6188   11.4733 N   0  0  0  0  0  0  0  0  0  0  0  0
  -14.0779  -21.4085   11.3477 C   0  0  0  0  0  0  0  0  0  0  0  0
  -14.6942  -20.2728   10.5721 C   0  0  0  0  0  0  0  0  0  0  0  0
  -13.8007  -19.9243    9.3813 C   0  0  0  0  0  0  0  0  0  0  0  0
  -11.6568  -23.2328   13.4852 C   0  0  0  0  0  0  0  0  0  0  0  0
   -5.8462  -14.3788   11.6429 C   0  0  0  0  0  0  0  0  0  0  0  0
   -4.6970  -14.8486   12.3500 O   0  0  0  0  0  0  0  0  0  0  0  0
   -6.5173  -13.2623   12.4460 C   0  0  0  0  0  0  0  0  0  0  0  0
   -7.7512  -12.9015   11.8214 O   0  0  0  0  0  0  0  0  0  0  0  0
   -5.5946  -12.0437   12.4959 C   0  0  0  0  0  0  0  0  0  0  0  0
   -4.4852  -12.3208   13.3531 O   0  0  0  0  0  0  0  0  0  0  0  0
  1  2  1  0
  2  3  2  0
  2 11  1  0
  3  4  1  0
  3  8  1  0
  4  5  2  0
  5  6  1  0
  5 23  1  0
  6  7  2  0
  7  8  1  0
  8  9  2  0
  9 10  1  0
 10 11  2  0
 10 12  1  0
 12 13  1  0
 13 14  2  0
 13 15  1  0
 15 16  2  0
 15 19  1  0
 16 17  1  0
 16 22  1  0
 17 18  1  0
 18 19  2  0
 19 20  1  0
 20 21  1  0
 23 24  1  0
 23 25  1  0
 25 26  1  0
 25 27  1  0
 27 28  1  0
M  END
>  <Gold.Gold.Protein.RotatedWaterAtoms>  (120) 


>  <Gold.Id.Protein>  (120) 


>  <Gold.PLP.Chemscore.CHOScore>  (120) 
0.0000

>  <Gold.PLP.Chemscore.Hbond>  (120) 
4.8772

>  <Gold.PLP.Chemscore.Internal.Correction>  (120) 
0.6326

>  <Gold.PLP.Chemscore.Metal>  (120) 
0.0000

>  <Gold.PLP.Fitness>  (120) 
65.3321

>  <Gold.PLP.PLP>  (120) 
-53.3263

>  <Gold.PLP.ligand.clash>  (120) 
0.0000

>  <Gold.PLP.ligand.torsion>  (120) 
1.6292

>  <Gold.PLP.part.buried>  (120) 
-7.7165

>  <Gold.PLP.part.hbond>  (120) 
-11.7945

>  <Gold.PLP.part.metal>  (120) 
0.0000

>  <Gold.PLP.part.nonpolar>  (120) 
-35.6497

>  <Gold.PLP.part.repulsive>  (120) 
0.2501

>  <Gold.Protein.RotatedAtoms>  (120) 


>  <Gold.Protein.RotatedTorsions>  (120) 


>  <Gold.Protein.RotatedWaterAtoms>  (120) 


>  <Gold.Version>  (120) 
5.3.0

>  <PLP.Chemscore.CHOScore>  (120) 


>  <PLP.Chemscore.Hbond>  (120) 


>  <PLP.Chemscore.Internal.Correction>  (120) 


>  <PLP.Chemscore.Metal>  (120) 


>  <PLP.Fitness>  (120) 


>  <PLP.PLP>  (120) 


>  <PLP.ligand.clash>  (120) 


>  <PLP.ligand.torsion>  (120) 


>  <PLP.part.buried>  (120) 


>  <PLP.part.hbond>  (120) 


>  <PLP.part.metal>  (120) 


>  <PLP.part.nonpolar>  (120) 


>  <PLP.part.repulsive>  (120) 


>  <Version>  (120) 


$$$$
3120|Compound_1919|Compounds_3D_F|sdf|559|dock9|1
     RDKit          3D

 28 30  0  0  0  0  0  0  0  0999 V2000
   -7.0083  -19.5428   10.1183 O   0  0  0  0  0  0  0  0  0  0  0  0
   -8.1853  -19.1663   10.6684 C   0  0  0  0  0  0  0  0  0  0  0  0
   -8.3857  -17.8340   11.1126 C   0  0  0  0  0  0  0  0  0  0  0  0
   -7.4356  -16.9073   11.0079 N   0  0  0  0  0  0  0  0  0  0  0  0
   -7.6700  -15.6859   11.4340 C   0  0  0  0  0  0  0  0  0  0  0  0
   -8.9028  -15.3522   11.9944 C   0  0  0  0  0  0  0  0  0  0  0  0
   -9.8565  -16.2517   12.1069 N   0  0  0  0  0  0  0  0  0  0  0  0
   -9.6400  -17.4987   11.6808 C   0  0  0  0  0  0  0  0  0  0  0  0
  -10.5790  -18.4485   11.7740 N   0  0  0  0  0  0  0  0  0  0  0  0
  -10.3381  -19.6720   11.3446 C   0  0  0  0  0  0  0  0  0  0  0  0
   -9.1777  -20.0291   10.8006 N   0  0  0  0  0  0  0  0  0  0  0  0
  -11.3380  -20.6256   11.4605 N   0  0  0  0  0  0  0  0  0  0  0  0
  -12.2575  -20.7609   10.4843 C   0  0  0  0  0  0  0  0  0  0  0  0
  -12.2087  -20.0464    9.5007 O   0  0  0  0  0  0  0  0  0  0  0  0
  -13.3201  -21.7734   10.6073 C   0  0  0  0  0  0  0  0  0  0  0  0
  -13.7391  -22.4437   11.7315 C   0  0  0  0  0  0  0  0  0  0  0  0
  -14.7257  -23.2533   11.3397 O   0  0  0  0  0  0  0  0  0  0  0  0
  -14.9638  -23.1749   10.1600 N   0  0  0  0  0  0  0  0  0  0  0  0
  -14.2002  -22.3110    9.5582 C   0  0  0  0  0  0  0  0  0  0  0  0
  -14.2090  -21.9455    8.0962 C   0  0  0  0  0  0  0  0  0  0  0  0
  -15.3922  -22.6263    7.4073 C   0  0  0  0  0  0  0  0  0  0  0  0
  -13.1929  -22.2945   13.1280 C   0  0  0  0  0  0  0  0  0  0  0  0
   -6.5954  -14.6362   11.3169 C   0  0  0  0  0  0  0  0  0  0  0  0
   -5.9549  -14.7491   10.0448 O   0  0  0  0  0  0  0  0  0  0  0  0
   -5.5617  -14.8371   12.4274 C   0  0  0  0  0  0  0  0  0  0  0  0
   -4.6491  -13.7372   12.4337 O   0  0  0  0  0  0  0  0  0  0  0  0
   -4.7938  -16.1366   12.1812 C   0  0  0  0  0  0  0  0  0  0  0  0
   -3.6832  -15.8779   11.3198 O   0  0  0  0  0  0  0  0  0  0  0  0
  1  2  1  0
  2  3  2  0
  2 11  1  0
  3  4  1  0
  3  8  1  0
  4  5  2  0
  5  6  1  0
  5 23  1  0
  6  7  2  0
  7  8  1  0
  8  9  2  0
  9 10  1  0
 10 11  2  0
 10 12  1  0
 12 13  1  0
 13 14  2  0
 13 15  1  0
 15 16  2  0
 15 19  1  0
 16 17  1  0
 16 22  1  0
 17 18  1  0
 18 19  2  0
 19 20  1  0
 20 21  1  0
 23 24  1  0
 23 25  1  0
 25 26  1  0
 25 27  1  0
 27 28  1  0
M  END
>  <Gold.Gold.Protein.RotatedWaterAtoms>  (121) 


>  <Gold.Id.Protein>  (121) 


>  <Gold.PLP.Chemscore.CHOScore>  (121) 
0.0000

>  <Gold.PLP.Chemscore.Hbond>  (121) 
4.9520

>  <Gold.PLP.Chemscore.Internal.Correction>  (121) 
0.5997

>  <Gold.PLP.Chemscore.Metal>  (121) 
0.0000

>  <Gold.PLP.Fitness>  (121) 
61.1751

>  <Gold.PLP.PLP>  (121) 
-49.2814

>  <Gold.PLP.ligand.clash>  (121) 
0.0000

>  <Gold.PLP.ligand.torsion>  (121) 
1.7810

>  <Gold.PLP.part.buried>  (121) 
-7.8304

>  <Gold.PLP.part.hbond>  (121) 
-8.9136

>  <Gold.PLP.part.metal>  (121) 
0.0000

>  <Gold.PLP.part.nonpolar>  (121) 
-32.7667

>  <Gold.PLP.part.repulsive>  (121) 
0.1358

>  <Gold.Protein.RotatedAtoms>  (121) 


>  <Gold.Protein.RotatedTorsions>  (121) 


>  <Gold.Protein.RotatedWaterAtoms>  (121) 


>  <Gold.Version>  (121) 
5.3.0

>  <PLP.Chemscore.CHOScore>  (121) 


>  <PLP.Chemscore.Hbond>  (121) 


>  <PLP.Chemscore.Internal.Correction>  (121) 


>  <PLP.Chemscore.Metal>  (121) 


>  <PLP.Fitness>  (121) 


>  <PLP.PLP>  (121) 


>  <PLP.ligand.clash>  (121) 


>  <PLP.ligand.torsion>  (121) 


>  <PLP.part.buried>  (121) 


>  <PLP.part.hbond>  (121) 


>  <PLP.part.metal>  (121) 


>  <PLP.part.nonpolar>  (121) 


>  <PLP.part.repulsive>  (121) 


>  <Version>  (121) 


$$$$
3121|Compound_1920|Compounds_3D_F|sdf|560|dock1|1
     RDKit          3D

 20 21  0  0  0  0  0  0  0  0999 V2000
   -8.8063  -16.6970   11.8027 N   0  0  0  0  0  0  0  0  0  0  0  0
   -8.7636  -15.3696   12.0340 C   0  0  0  0  0  0  0  0  0  0  0  0
   -9.7973  -14.7374   12.1386 O   0  0  0  0  0  0  0  0  0  0  0  0
   -7.4642  -14.6856   12.1602 C   0  0  0  0  0  0  0  0  0  0  0  0
   -6.2270  -15.2346   12.3947 C   0  0  0  0  0  0  0  0  0  0  0  0
   -5.3641  -14.2155   12.4248 O   0  0  0  0  0  0  0  0  0  0  0  0
   -5.8889  -13.1446   12.2451 N   0  0  0  0  0  0  0  0  0  0  0  0
   -7.1715  -13.2477   12.0599 C   0  0  0  0  0  0  0  0  0  0  0  0
   -8.1517  -12.1305   11.8075 C   0  0  0  0  0  0  0  0  0  0  0  0
   -7.4269  -10.7859   11.8987 C   0  0  0  0  0  0  0  0  0  0  0  0
   -5.9068  -16.6948   12.5817 C   0  0  0  0  0  0  0  0  0  0  0  0
  -10.0348  -17.3441   11.6782 C   0  0  0  0  0  0  0  0  0  0  0  0
  -11.0874  -17.1830   12.4357 N   0  0  0  0  0  0  0  0  0  0  0  0
  -12.0039  -17.8866   12.0764 O   0  0  0  0  0  0  0  0  0  0  0  0
  -11.6731  -18.6247   11.0071 C   0  0  0  0  0  0  0  0  0  0  0  0
  -10.3953  -18.3081   10.6986 C   0  0  0  0  0  0  0  0  0  0  0  0
  -12.5555  -19.6122   10.2869 C   0  0  0  0  0  0  0  0  0  0  0  0
  -11.7467  -20.3177    9.1968 C   0  0  0  0  0  0  0  0  0  0  0  0
  -13.0806  -20.6474   11.2835 C   0  0  0  0  0  0  0  0  0  0  0  0
  -13.7336  -18.8731    9.6504 C   0  0  0  0  0  0  0  0  0  0  0  0
  1  2  1  0
  1 12  1  0
  2  3  2  0
  2  4  1  0
  4  5  2  0
  4  8  1  0
  5  6  1  0
  5 11  1  0
  6  7  1  0
  7  8  2  0
  8  9  1  0
  9 10  1  0
 12 13  2  0
 12 16  1  0
 13 14  1  0
 14 15  1  0
 15 16  2  0
 15 17  1  0
 17 18  1  0
 17 19  1  0
 17 20  1  0
M  END
>  <Gold.Gold.Protein.RotatedWaterAtoms>  (122) 


>  <Gold.Id.Protein>  (122) 


>  <Gold.PLP.Chemscore.CHOScore>  (122) 
0.0000

>  <Gold.PLP.Chemscore.Hbond>  (122) 
1.2640

>  <Gold.PLP.Chemscore.Internal.Correction>  (122) 
0.0329

>  <Gold.PLP.Chemscore.Metal>  (122) 
0.0000

>  <Gold.PLP.Fitness>  (122) 
51.4749

>  <Gold.PLP.PLP>  (122) 
-48.8333

>  <Gold.PLP.ligand.clash>  (122) 
0.0000

>  <Gold.PLP.ligand.torsion>  (122) 
0.5916

>  <Gold.PLP.part.buried>  (122) 
-7.8526

>  <Gold.PLP.part.hbond>  (122) 
-4.0021

>  <Gold.PLP.part.metal>  (122) 
0.0000

>  <Gold.PLP.part.nonpolar>  (122) 
-37.8163

>  <Gold.PLP.part.repulsive>  (122) 
0.7554

>  <Gold.Protein.RotatedAtoms>  (122) 


>  <Gold.Protein.RotatedTorsions>  (122) 


>  <Gold.Protein.RotatedWaterAtoms>  (122) 


>  <Gold.Version>  (122) 
5.3.0

>  <PLP.Chemscore.CHOScore>  (122) 


>  <PLP.Chemscore.Hbond>  (122) 


>  <PLP.Chemscore.Internal.Correction>  (122) 


>  <PLP.Chemscore.Metal>  (122) 


>  <PLP.Fitness>  (122) 


>  <PLP.PLP>  (122) 


>  <PLP.ligand.clash>  (122) 


>  <PLP.ligand.torsion>  (122) 


>  <PLP.part.buried>  (122) 


>  <PLP.part.hbond>  (122) 


>  <PLP.part.metal>  (122) 


>  <PLP.part.nonpolar>  (122) 


>  <PLP.part.repulsive>  (122) 


>  <Version>  (122) 


$$$$
3122|Compound_1920|Compounds_3D_F|sdf|560|dock2|1
     RDKit          3D

 20 21  0  0  0  0  0  0  0  0999 V2000
   -8.5933  -16.6694   11.7591 N   0  0  0  0  0  0  0  0  0  0  0  0
   -8.6004  -15.3331   11.9361 C   0  0  0  0  0  0  0  0  0  0  0  0
   -9.6545  -14.7267   11.9447 O   0  0  0  0  0  0  0  0  0  0  0  0
   -7.3304  -14.6079   12.1194 C   0  0  0  0  0  0  0  0  0  0  0  0
   -7.0910  -13.2597   12.0103 C   0  0  0  0  0  0  0  0  0  0  0  0
   -5.7912  -13.0878   12.2653 O   0  0  0  0  0  0  0  0  0  0  0  0
   -5.2157  -14.1190   12.5098 N   0  0  0  0  0  0  0  0  0  0  0  0
   -6.0083  -15.1487   12.4701 C   0  0  0  0  0  0  0  0  0  0  0  0
   -5.6471  -16.5909   12.7192 C   0  0  0  0  0  0  0  0  0  0  0  0
   -4.5398  -17.0138   11.7513 C   0  0  0  0  0  0  0  0  0  0  0  0
   -8.0939  -12.1882   11.6701 C   0  0  0  0  0  0  0  0  0  0  0  0
   -9.7937  -17.3556   11.5806 C   0  0  0  0  0  0  0  0  0  0  0  0
  -10.9219  -17.1395   12.2037 N   0  0  0  0  0  0  0  0  0  0  0  0
  -11.7866  -17.8994   11.8314 O   0  0  0  0  0  0  0  0  0  0  0  0
  -11.3362  -18.7401   10.8890 C   0  0  0  0  0  0  0  0  0  0  0  0
  -10.0373  -18.4277   10.6805 C   0  0  0  0  0  0  0  0  0  0  0  0
  -12.1255  -19.8203   10.1943 C   0  0  0  0  0  0  0  0  0  0  0  0
  -12.6423  -20.8202   11.2304 C   0  0  0  0  0  0  0  0  0  0  0  0
  -13.3094  -19.1917    9.4568 C   0  0  0  0  0  0  0  0  0  0  0  0
  -11.2256  -20.5440    9.1915 C   0  0  0  0  0  0  0  0  0  0  0  0
  1  2  1  0
  1 12  1  0
  2  3  2  0
  2  4  1  0
  4  5  2  0
  4  8  1  0
  5  6  1  0
  5 11  1  0
  6  7  1  0
  7  8  2  0
  8  9  1  0
  9 10  1  0
 12 13  2  0
 12 16  1  0
 13 14  1  0
 14 15  1  0
 15 16  2  0
 15 17  1  0
 17 18  1  0
 17 19  1  0
 17 20  1  0
M  END
>  <Gold.Gold.Protein.RotatedWaterAtoms>  (123) 


>  <Gold.Id.Protein>  (123) 


>  <Gold.PLP.Chemscore.CHOScore>  (123) 
0.0000

>  <Gold.PLP.Chemscore.Hbond>  (123) 
1.1950

>  <Gold.PLP.Chemscore.Internal.Correction>  (123) 
0.0329

>  <Gold.PLP.Chemscore.Metal>  (123) 
0.0000

>  <Gold.PLP.Fitness>  (123) 
49.9172

>  <Gold.PLP.PLP>  (123) 
-47.1715

>  <Gold.PLP.ligand.clash>  (123) 
0.0000

>  <Gold.PLP.ligand.torsion>  (123) 
0.4361

>  <Gold.PLP.part.buried>  (123) 
-8.6599

>  <Gold.PLP.part.hbond>  (123) 
-3.2532

>  <Gold.PLP.part.metal>  (123) 
0.0000

>  <Gold.PLP.part.nonpolar>  (123) 
-34.6427

>  <Gold.PLP.part.repulsive>  (123) 
0.7544

>  <Gold.Protein.RotatedAtoms>  (123) 


>  <Gold.Protein.RotatedTorsions>  (123) 


>  <Gold.Protein.RotatedWaterAtoms>  (123) 


>  <Gold.Version>  (123) 
5.3.0

>  <PLP.Chemscore.CHOScore>  (123) 


>  <PLP.Chemscore.Hbond>  (123) 


>  <PLP.Chemscore.Internal.Correction>  (123) 


>  <PLP.Chemscore.Metal>  (123) 


>  <PLP.Fitness>  (123) 


>  <PLP.PLP>  (123) 


>  <PLP.ligand.clash>  (123) 


>  <PLP.ligand.torsion>  (123) 


>  <PLP.part.buried>  (123) 


>  <PLP.part.hbond>  (123) 


>  <PLP.part.metal>  (123) 


>  <PLP.part.nonpolar>  (123) 


>  <PLP.part.repulsive>  (123) 


>  <Version>  (123) 


$$$$
3123|Compound_1920|Compounds_3D_F|sdf|560|dock3|1
     RDKit          3D

 20 21  0  0  0  0  0  0  0  0999 V2000
   -8.9825  -16.7106   11.3590 N   0  0  0  0  0  0  0  0  0  0  0  0
   -8.9123  -15.4684   11.8777 C   0  0  0  0  0  0  0  0  0  0  0  0
   -9.9055  -14.9504   12.3512 O   0  0  0  0  0  0  0  0  0  0  0  0
   -7.6316  -14.7388   11.8707 C   0  0  0  0  0  0  0  0  0  0  0  0
   -6.3582  -15.2438   11.9728 C   0  0  0  0  0  0  0  0  0  0  0  0
   -5.5332  -14.1949   11.9172 O   0  0  0  0  0  0  0  0  0  0  0  0
   -6.1112  -13.1432   11.7975 N   0  0  0  0  0  0  0  0  0  0  0  0
   -7.4017  -13.2915   11.7464 C   0  0  0  0  0  0  0  0  0  0  0  0
   -8.4415  -12.2096   11.6020 C   0  0  0  0  0  0  0  0  0  0  0  0
   -7.7565  -10.8412   11.5982 C   0  0  0  0  0  0  0  0  0  0  0  0
   -5.9692  -16.6919   12.1195 C   0  0  0  0  0  0  0  0  0  0  0  0
  -10.1945  -17.3996   11.3605 C   0  0  0  0  0  0  0  0  0  0  0  0
  -11.0626  -17.4591   12.3356 N   0  0  0  0  0  0  0  0  0  0  0  0
  -12.0192  -18.1368   12.0366 O   0  0  0  0  0  0  0  0  0  0  0  0
  -11.9104  -18.6280   10.7938 C   0  0  0  0  0  0  0  0  0  0  0  0
  -10.7363  -18.1743   10.2999 C   0  0  0  0  0  0  0  0  0  0  0  0
  -12.9051  -19.5106   10.0840 C   0  0  0  0  0  0  0  0  0  0  0  0
  -14.0014  -19.9333   11.0638 C   0  0  0  0  0  0  0  0  0  0  0  0
  -13.5304  -18.7397    8.9199 C   0  0  0  0  0  0  0  0  0  0  0  0
  -12.1925  -20.7536    9.5487 C   0  0  0  0  0  0  0  0  0  0  0  0
  1  2  1  0
  1 12  1  0
  2  3  2  0
  2  4  1  0
  4  5  2  0
  4  8  1  0
  5  6  1  0
  5 11  1  0
  6  7  1  0
  7  8  2  0
  8  9  1  0
  9 10  1  0
 12 13  2  0
 12 16  1  0
 13 14  1  0
 14 15  1  0
 15 16  2  0
 15 17  1  0
 17 18  1  0
 17 19  1  0
 17 20  1  0
M  END
>  <Gold.Gold.Protein.RotatedWaterAtoms>  (124) 


>  <Gold.Id.Protein>  (124) 


>  <Gold.PLP.Chemscore.CHOScore>  (124) 
0.0000

>  <Gold.PLP.Chemscore.Hbond>  (124) 
1.4920

>  <Gold.PLP.Chemscore.Internal.Correction>  (124) 
0.0287

>  <Gold.PLP.Chemscore.Metal>  (124) 
0.0000

>  <Gold.PLP.Fitness>  (124) 
49.3075

>  <Gold.PLP.PLP>  (124) 
-46.7100

>  <Gold.PLP.ligand.clash>  (124) 
0.0000

>  <Gold.PLP.ligand.torsion>  (124) 
0.9536

>  <Gold.PLP.part.buried>  (124) 
-4.5864

>  <Gold.PLP.part.hbond>  (124) 
-4.5964

>  <Gold.PLP.part.metal>  (124) 
0.0000

>  <Gold.PLP.part.nonpolar>  (124) 
-38.0458

>  <Gold.PLP.part.repulsive>  (124) 
0.8275

>  <Gold.Protein.RotatedAtoms>  (124) 


>  <Gold.Protein.RotatedTorsions>  (124) 


>  <Gold.Protein.RotatedWaterAtoms>  (124) 


>  <Gold.Version>  (124) 
5.3.0

>  <PLP.Chemscore.CHOScore>  (124) 


>  <PLP.Chemscore.Hbond>  (124) 


>  <PLP.Chemscore.Internal.Correction>  (124) 


>  <PLP.Chemscore.Metal>  (124) 


>  <PLP.Fitness>  (124) 


>  <PLP.PLP>  (124) 


>  <PLP.ligand.clash>  (124) 


>  <PLP.ligand.torsion>  (124) 


>  <PLP.part.buried>  (124) 


>  <PLP.part.hbond>  (124) 


>  <PLP.part.metal>  (124) 


>  <PLP.part.nonpolar>  (124) 


>  <PLP.part.repulsive>  (124) 


>  <Version>  (124) 


$$$$
3124|Compound_1920|Compounds_3D_F|sdf|560|dock4|1
     RDKit          3D

 20 21  0  0  0  0  0  0  0  0999 V2000
   -8.6697  -16.6579   11.7617 N   0  0  0  0  0  0  0  0  0  0  0  0
   -8.6598  -15.3283   11.9833 C   0  0  0  0  0  0  0  0  0  0  0  0
   -9.7082  -14.7159   12.0531 O   0  0  0  0  0  0  0  0  0  0  0  0
   -7.3782  -14.6177   12.1411 C   0  0  0  0  0  0  0  0  0  0  0  0
   -7.1196  -13.2763   11.9966 C   0  0  0  0  0  0  0  0  0  0  0  0
   -5.8159  -13.1173   12.2399 O   0  0  0  0  0  0  0  0  0  0  0  0
   -5.2543  -14.1505   12.5072 N   0  0  0  0  0  0  0  0  0  0  0  0
   -6.0622  -15.1690   12.4980 C   0  0  0  0  0  0  0  0  0  0  0  0
   -5.7207  -16.6097   12.7814 C   0  0  0  0  0  0  0  0  0  0  0  0
   -4.5767  -17.0522   11.8665 C   0  0  0  0  0  0  0  0  0  0  0  0
   -8.1087  -12.1990   11.6350 C   0  0  0  0  0  0  0  0  0  0  0  0
   -9.8813  -17.3302   11.6072 C   0  0  0  0  0  0  0  0  0  0  0  0
  -10.9632  -17.1730   12.3231 N   0  0  0  0  0  0  0  0  0  0  0  0
  -11.8535  -17.9007   11.9465 O   0  0  0  0  0  0  0  0  0  0  0  0
  -11.4713  -18.6546   10.9057 C   0  0  0  0  0  0  0  0  0  0  0  0
  -10.1891  -18.3207   10.6362 C   0  0  0  0  0  0  0  0  0  0  0  0
  -12.3093  -19.6730   10.1757 C   0  0  0  0  0  0  0  0  0  0  0  0
  -13.4849  -18.9709    9.4935 C   0  0  0  0  0  0  0  0  0  0  0  0
  -11.4526  -20.3758    9.1209 C   0  0  0  0  0  0  0  0  0  0  0  0
  -12.8401  -20.7048   11.1723 C   0  0  0  0  0  0  0  0  0  0  0  0
  1  2  1  0
  1 12  1  0
  2  3  2  0
  2  4  1  0
  4  5  2  0
  4  8  1  0
  5  6  1  0
  5 11  1  0
  6  7  1  0
  7  8  2  0
  8  9  1  0
  9 10  1  0
 12 13  2  0
 12 16  1  0
 13 14  1  0
 14 15  1  0
 15 16  2  0
 15 17  1  0
 17 18  1  0
 17 19  1  0
 17 20  1  0
M  END
>  <Gold.Gold.Protein.RotatedWaterAtoms>  (125) 


>  <Gold.Id.Protein>  (125) 


>  <Gold.PLP.Chemscore.CHOScore>  (125) 
0.0000

>  <Gold.PLP.Chemscore.Hbond>  (125) 
1.1413

>  <Gold.PLP.Chemscore.Internal.Correction>  (125) 
0.0251

>  <Gold.PLP.Chemscore.Metal>  (125) 
0.0000

>  <Gold.PLP.Fitness>  (125) 
49.5860

>  <Gold.PLP.PLP>  (125) 
-47.3738

>  <Gold.PLP.ligand.clash>  (125) 
0.0000

>  <Gold.PLP.ligand.torsion>  (125) 
0.6183

>  <Gold.PLP.part.buried>  (125) 
-8.5154

>  <Gold.PLP.part.hbond>  (125) 
-3.7940

>  <Gold.PLP.part.metal>  (125) 
0.0000

>  <Gold.PLP.part.nonpolar>  (125) 
-35.4191

>  <Gold.PLP.part.repulsive>  (125) 
0.7506

>  <Gold.Protein.RotatedAtoms>  (125) 


>  <Gold.Protein.RotatedTorsions>  (125) 


>  <Gold.Protein.RotatedWaterAtoms>  (125) 


>  <Gold.Version>  (125) 
5.3.0

>  <PLP.Chemscore.CHOScore>  (125) 


>  <PLP.Chemscore.Hbond>  (125) 


>  <PLP.Chemscore.Internal.Correction>  (125) 


>  <PLP.Chemscore.Metal>  (125) 


>  <PLP.Fitness>  (125) 


>  <PLP.PLP>  (125) 


>  <PLP.ligand.clash>  (125) 


>  <PLP.ligand.torsion>  (125) 


>  <PLP.part.buried>  (125) 


>  <PLP.part.hbond>  (125) 


>  <PLP.part.metal>  (125) 


>  <PLP.part.nonpolar>  (125) 


>  <PLP.part.repulsive>  (125) 


>  <Version>  (125) 


$$$$
3125|Compound_1920|Compounds_3D_F|sdf|560|dock5|1
     RDKit          3D

 20 21  0  0  0  0  0  0  0  0999 V2000
   -8.8904  -16.5882   12.0113 N   0  0  0  0  0  0  0  0  0  0  0  0
   -8.7919  -15.2438   12.0198 C   0  0  0  0  0  0  0  0  0  0  0  0
   -9.7913  -14.5604   11.9053 O   0  0  0  0  0  0  0  0  0  0  0  0
   -7.4728  -14.6032   12.1682 C   0  0  0  0  0  0  0  0  0  0  0  0
   -7.1480  -13.2741   12.0456 C   0  0  0  0  0  0  0  0  0  0  0  0
   -5.8338  -13.1872   12.2680 O   0  0  0  0  0  0  0  0  0  0  0  0
   -5.3216  -14.2531   12.5046 N   0  0  0  0  0  0  0  0  0  0  0  0
   -6.1810  -15.2284   12.4900 C   0  0  0  0  0  0  0  0  0  0  0  0
   -5.9094  -16.6903   12.7386 C   0  0  0  0  0  0  0  0  0  0  0  0
   -4.7979  -17.1690   11.8020 C   0  0  0  0  0  0  0  0  0  0  0  0
   -8.0863  -12.1403   11.7234 C   0  0  0  0  0  0  0  0  0  0  0  0
  -10.1370  -17.1952   11.8659 C   0  0  0  0  0  0  0  0  0  0  0  0
  -11.2160  -16.9492   12.5611 N   0  0  0  0  0  0  0  0  0  0  0  0
  -12.1426  -17.6384   12.2001 O   0  0  0  0  0  0  0  0  0  0  0  0
  -11.7932  -18.4519   11.1932 C   0  0  0  0  0  0  0  0  0  0  0  0
  -10.4908  -18.2026   10.9285 C   0  0  0  0  0  0  0  0  0  0  0  0
  -12.6806  -19.4474   10.4906 C   0  0  0  0  0  0  0  0  0  0  0  0
  -13.2525  -20.4309   11.5132 C   0  0  0  0  0  0  0  0  0  0  0  0
  -13.8265  -18.7079    9.7972 C   0  0  0  0  0  0  0  0  0  0  0  0
  -11.8628  -20.2126    9.4488 C   0  0  0  0  0  0  0  0  0  0  0  0
  1  2  1  0
  1 12  1  0
  2  3  2  0
  2  4  1  0
  4  5  2  0
  4  8  1  0
  5  6  1  0
  5 11  1  0
  6  7  1  0
  7  8  2  0
  8  9  1  0
  9 10  1  0
 12 13  2  0
 12 16  1  0
 13 14  1  0
 14 15  1  0
 15 16  2  0
 15 17  1  0
 17 18  1  0
 17 19  1  0
 17 20  1  0
M  END
>  <Gold.Gold.Protein.RotatedWaterAtoms>  (126) 


>  <Gold.Id.Protein>  (126) 


>  <Gold.PLP.Chemscore.CHOScore>  (126) 
0.0000

>  <Gold.PLP.Chemscore.Hbond>  (126) 
1.3696

>  <Gold.PLP.Chemscore.Internal.Correction>  (126) 
0.0111

>  <Gold.PLP.Chemscore.Metal>  (126) 
0.0000

>  <Gold.PLP.Fitness>  (126) 
48.3695

>  <Gold.PLP.PLP>  (126) 
-45.3491

>  <Gold.PLP.ligand.clash>  (126) 
0.0000

>  <Gold.PLP.ligand.torsion>  (126) 
0.5498

>  <Gold.PLP.part.buried>  (126) 
-3.1228

>  <Gold.PLP.part.hbond>  (126) 
-4.1835

>  <Gold.PLP.part.metal>  (126) 
0.0000

>  <Gold.PLP.part.nonpolar>  (126) 
-37.0217

>  <Gold.PLP.part.repulsive>  (126) 
0.8331

>  <Gold.Protein.RotatedAtoms>  (126) 


>  <Gold.Protein.RotatedTorsions>  (126) 


>  <Gold.Protein.RotatedWaterAtoms>  (126) 


>  <Gold.Version>  (126) 
5.3.0

>  <PLP.Chemscore.CHOScore>  (126) 


>  <PLP.Chemscore.Hbond>  (126) 


>  <PLP.Chemscore.Internal.Correction>  (126) 


>  <PLP.Chemscore.Metal>  (126) 


>  <PLP.Fitness>  (126) 


>  <PLP.PLP>  (126) 


>  <PLP.ligand.clash>  (126) 


>  <PLP.ligand.torsion>  (126) 


>  <PLP.part.buried>  (126) 


>  <PLP.part.hbond>  (126) 


>  <PLP.part.metal>  (126) 


>  <PLP.part.nonpolar>  (126) 


>  <PLP.part.repulsive>  (126) 


>  <Version>  (126) 


$$$$
3126|Compound_1920|Compounds_3D_F|sdf|560|dock6|1
     RDKit          3D

 20 21  0  0  0  0  0  0  0  0999 V2000
   -8.6556  -16.8209   11.6717 N   0  0  0  0  0  0  0  0  0  0  0  0
   -8.6316  -15.4937   11.9063 C   0  0  0  0  0  0  0  0  0  0  0  0
   -9.6737  -14.8723   11.9899 O   0  0  0  0  0  0  0  0  0  0  0  0
   -7.3423  -14.7966   12.0616 C   0  0  0  0  0  0  0  0  0  0  0  0
   -7.0915  -13.4461   12.0427 C   0  0  0  0  0  0  0  0  0  0  0  0
   -5.7756  -13.3065   12.2241 O   0  0  0  0  0  0  0  0  0  0  0  0
   -5.2000  -14.3590   12.3490 N   0  0  0  0  0  0  0  0  0  0  0  0
   -6.0080  -15.3752   12.2813 C   0  0  0  0  0  0  0  0  0  0  0  0
   -5.6517  -16.8357   12.3927 C   0  0  0  0  0  0  0  0  0  0  0  0
   -4.1319  -16.9837   12.4922 C   0  0  0  0  0  0  0  0  0  0  0  0
   -8.0992  -12.3423   11.8539 C   0  0  0  0  0  0  0  0  0  0  0  0
   -9.8745  -17.4803   11.5196 C   0  0  0  0  0  0  0  0  0  0  0  0
  -10.9708  -17.2706   12.1992 N   0  0  0  0  0  0  0  0  0  0  0  0
  -11.8641  -18.0015   11.8361 O   0  0  0  0  0  0  0  0  0  0  0  0
  -11.4696  -18.8119   10.8434 C   0  0  0  0  0  0  0  0  0  0  0  0
  -10.1755  -18.5124   10.5906 C   0  0  0  0  0  0  0  0  0  0  0  0
  -12.3070  -19.8513   10.1430 C   0  0  0  0  0  0  0  0  0  0  0  0
  -13.4604  -19.1659    9.4081 C   0  0  0  0  0  0  0  0  0  0  0  0
  -11.4399  -20.6106    9.1369 C   0  0  0  0  0  0  0  0  0  0  0  0
  -12.8696  -20.8315   11.1737 C   0  0  0  0  0  0  0  0  0  0  0  0
  1  2  1  0
  1 12  1  0
  2  3  2  0
  2  4  1  0
  4  5  2  0
  4  8  1  0
  5  6  1  0
  5 11  1  0
  6  7  1  0
  7  8  2  0
  8  9  1  0
  9 10  1  0
 12 13  2  0
 12 16  1  0
 13 14  1  0
 14 15  1  0
 15 16  2  0
 15 17  1  0
 17 18  1  0
 17 19  1  0
 17 20  1  0
M  END
>  <Gold.Gold.Protein.RotatedWaterAtoms>  (127) 


>  <Gold.Id.Protein>  (127) 


>  <Gold.PLP.Chemscore.CHOScore>  (127) 
0.0000

>  <Gold.PLP.Chemscore.Hbond>  (127) 
1.2937

>  <Gold.PLP.Chemscore.Internal.Correction>  (127) 
0.0111

>  <Gold.PLP.Chemscore.Metal>  (127) 
0.0000

>  <Gold.PLP.Fitness>  (127) 
49.9162

>  <Gold.PLP.PLP>  (127) 
-46.9465

>  <Gold.PLP.ligand.clash>  (127) 
0.0000

>  <Gold.PLP.ligand.torsion>  (127) 
0.4612

>  <Gold.PLP.part.buried>  (127) 
-9.3060

>  <Gold.PLP.part.hbond>  (127) 
-3.4263

>  <Gold.PLP.part.metal>  (127) 
0.0000

>  <Gold.PLP.part.nonpolar>  (127) 
-34.7379

>  <Gold.PLP.part.repulsive>  (127) 
0.7105

>  <Gold.Protein.RotatedAtoms>  (127) 


>  <Gold.Protein.RotatedTorsions>  (127) 


>  <Gold.Protein.RotatedWaterAtoms>  (127) 


>  <Gold.Version>  (127) 
5.3.0

>  <PLP.Chemscore.CHOScore>  (127) 


>  <PLP.Chemscore.Hbond>  (127) 


>  <PLP.Chemscore.Internal.Correction>  (127) 


>  <PLP.Chemscore.Metal>  (127) 


>  <PLP.Fitness>  (127) 


>  <PLP.PLP>  (127) 


>  <PLP.ligand.clash>  (127) 


>  <PLP.ligand.torsion>  (127) 


>  <PLP.part.buried>  (127) 


>  <PLP.part.hbond>  (127) 


>  <PLP.part.metal>  (127) 


>  <PLP.part.nonpolar>  (127) 


>  <PLP.part.repulsive>  (127) 


>  <Version>  (127) 


$$$$
3127|Compound_1920|Compounds_3D_F|sdf|560|dock7|1
     RDKit          3D

 20 21  0  0  0  0  0  0  0  0999 V2000
   -8.2927  -16.1426   11.9154 N   0  0  0  0  0  0  0  0  0  0  0  0
   -8.4905  -14.8167   12.0568 C   0  0  0  0  0  0  0  0  0  0  0  0
   -9.6171  -14.3822   12.2010 O   0  0  0  0  0  0  0  0  0  0  0  0
   -7.3408  -13.8945   12.0366 C   0  0  0  0  0  0  0  0  0  0  0  0
   -6.0085  -14.1836   12.2050 C   0  0  0  0  0  0  0  0  0  0  0  0
   -5.3570  -13.0219   12.1036 O   0  0  0  0  0  0  0  0  0  0  0  0
   -6.0883  -12.0846   11.9008 N   0  0  0  0  0  0  0  0  0  0  0  0
   -7.3368  -12.4390   11.8252 C   0  0  0  0  0  0  0  0  0  0  0  0
   -8.5276  -11.5468   11.5835 C   0  0  0  0  0  0  0  0  0  0  0  0
   -8.0802  -10.0835   11.6003 C   0  0  0  0  0  0  0  0  0  0  0  0
   -5.4025  -15.5399   12.4553 C   0  0  0  0  0  0  0  0  0  0  0  0
   -9.3798  -17.0153   11.9292 C   0  0  0  0  0  0  0  0  0  0  0  0
  -10.6116  -16.7300   12.2595 N   0  0  0  0  0  0  0  0  0  0  0  0
  -11.3300  -17.6996   12.1718 O   0  0  0  0  0  0  0  0  0  0  0  0
  -10.6541  -18.7824   11.7613 C   0  0  0  0  0  0  0  0  0  0  0  0
   -9.3717  -18.3931   11.5820 C   0  0  0  0  0  0  0  0  0  0  0  0
  -11.2156  -20.1635   11.5389 C   0  0  0  0  0  0  0  0  0  0  0  0
  -12.3282  -20.0987   10.4910 C   0  0  0  0  0  0  0  0  0  0  0  0
  -10.1039  -21.0921   11.0465 C   0  0  0  0  0  0  0  0  0  0  0  0
  -11.7838  -20.7003   12.8536 C   0  0  0  0  0  0  0  0  0  0  0  0
  1  2  1  0
  1 12  1  0
  2  3  2  0
  2  4  1  0
  4  5  2  0
  4  8  1  0
  5  6  1  0
  5 11  1  0
  6  7  1  0
  7  8  2  0
  8  9  1  0
  9 10  1  0
 12 13  2  0
 12 16  1  0
 13 14  1  0
 14 15  1  0
 15 16  2  0
 15 17  1  0
 17 18  1  0
 17 19  1  0
 17 20  1  0
M  END
>  <Gold.Gold.Protein.RotatedWaterAtoms>  (128) 


>  <Gold.Id.Protein>  (128) 


>  <Gold.PLP.Chemscore.CHOScore>  (128) 
0.0000

>  <Gold.PLP.Chemscore.Hbond>  (128) 
1.4344

>  <Gold.PLP.Chemscore.Internal.Correction>  (128) 
0.0111

>  <Gold.PLP.Chemscore.Metal>  (128) 
0.0000

>  <Gold.PLP.Fitness>  (128) 
55.8812

>  <Gold.PLP.PLP>  (128) 
-51.9903

>  <Gold.PLP.ligand.clash>  (128) 
0.0000

>  <Gold.PLP.ligand.torsion>  (128) 
0.2117

>  <Gold.PLP.part.buried>  (128) 
-9.4816

>  <Gold.PLP.part.hbond>  (128) 
-4.8529

>  <Gold.PLP.part.metal>  (128) 
0.0000

>  <Gold.PLP.part.nonpolar>  (128) 
-38.7701

>  <Gold.PLP.part.repulsive>  (128) 
0.8656

>  <Gold.Protein.RotatedAtoms>  (128) 


>  <Gold.Protein.RotatedTorsions>  (128) 


>  <Gold.Protein.RotatedWaterAtoms>  (128) 


>  <Gold.Version>  (128) 
5.3.0

>  <PLP.Chemscore.CHOScore>  (128) 


>  <PLP.Chemscore.Hbond>  (128) 


>  <PLP.Chemscore.Internal.Correction>  (128) 


>  <PLP.Chemscore.Metal>  (128) 


>  <PLP.Fitness>  (128) 


>  <PLP.PLP>  (128) 


>  <PLP.ligand.clash>  (128) 


>  <PLP.ligand.torsion>  (128) 


>  <PLP.part.buried>  (128) 


>  <PLP.part.hbond>  (128) 


>  <PLP.part.metal>  (128) 


>  <PLP.part.nonpolar>  (128) 


>  <PLP.part.repulsive>  (128) 


>  <Version>  (128) 


$$$$
3128|Compound_1920|Compounds_3D_F|sdf|560|dock8|1
     RDKit          3D

 20 21  0  0  0  0  0  0  0  0999 V2000
   -8.9425  -17.1616   11.4451 N   0  0  0  0  0  0  0  0  0  0  0  0
   -8.8403  -15.8932   11.8899 C   0  0  0  0  0  0  0  0  0  0  0  0
   -9.8384  -15.2840   12.2242 O   0  0  0  0  0  0  0  0  0  0  0  0
   -7.5187  -15.2456   11.9708 C   0  0  0  0  0  0  0  0  0  0  0  0
   -7.2257  -13.9065   12.0606 C   0  0  0  0  0  0  0  0  0  0  0  0
   -5.8939  -13.8165   12.1082 O   0  0  0  0  0  0  0  0  0  0  0  0
   -5.3444  -14.8891   12.0615 N   0  0  0  0  0  0  0  0  0  0  0  0
   -6.1890  -15.8740   11.9816 C   0  0  0  0  0  0  0  0  0  0  0  0
   -5.8727  -17.3460   11.9047 C   0  0  0  0  0  0  0  0  0  0  0  0
   -4.3798  -17.5609   12.1631 C   0  0  0  0  0  0  0  0  0  0  0  0
   -8.2097  -12.7664   12.0972 C   0  0  0  0  0  0  0  0  0  0  0  0
  -10.1926  -17.7733   11.3633 C   0  0  0  0  0  0  0  0  0  0  0  0
  -10.9910  -18.0639   12.3563 N   0  0  0  0  0  0  0  0  0  0  0  0
  -12.0076  -18.5925   11.9676 O   0  0  0  0  0  0  0  0  0  0  0  0
  -12.0190  -18.7252   10.6334 C   0  0  0  0  0  0  0  0  0  0  0  0
  -10.8567  -18.2018   10.1825 C   0  0  0  0  0  0  0  0  0  0  0  0
  -13.1158  -19.3354    9.7986 C   0  0  0  0  0  0  0  0  0  0  0  0
  -12.5345  -20.4544    8.9325 C   0  0  0  0  0  0  0  0  0  0  0  0
  -14.1957  -19.9099   10.7176 C   0  0  0  0  0  0  0  0  0  0  0  0
  -13.7296  -18.2610    8.8996 C   0  0  0  0  0  0  0  0  0  0  0  0
  1  2  1  0
  1 12  1  0
  2  3  2  0
  2  4  1  0
  4  5  2  0
  4  8  1  0
  5  6  1  0
  5 11  1  0
  6  7  1  0
  7  8  2  0
  8  9  1  0
  9 10  1  0
 12 13  2  0
 12 16  1  0
 13 14  1  0
 14 15  1  0
 15 16  2  0
 15 17  1  0
 17 18  1  0
 17 19  1  0
 17 20  1  0
M  END
>  <Gold.Gold.Protein.RotatedWaterAtoms>  (129) 


>  <Gold.Id.Protein>  (129) 


>  <Gold.PLP.Chemscore.CHOScore>  (129) 
0.0000

>  <Gold.PLP.Chemscore.Hbond>  (129) 
1.8480

>  <Gold.PLP.Chemscore.Internal.Correction>  (129) 
0.0111

>  <Gold.PLP.Chemscore.Metal>  (129) 
0.0000

>  <Gold.PLP.Fitness>  (129) 
49.5233

>  <Gold.PLP.PLP>  (129) 
-45.7929

>  <Gold.PLP.ligand.clash>  (129) 
0.0000

>  <Gold.PLP.ligand.torsion>  (129) 
0.9123

>  <Gold.PLP.part.buried>  (129) 
-7.7209

>  <Gold.PLP.part.hbond>  (129) 
-1.5738

>  <Gold.PLP.part.metal>  (129) 
0.0000

>  <Gold.PLP.part.nonpolar>  (129) 
-36.2518

>  <Gold.PLP.part.repulsive>  (129) 
0.5969

>  <Gold.Protein.RotatedAtoms>  (129) 


>  <Gold.Protein.RotatedTorsions>  (129) 


>  <Gold.Protein.RotatedWaterAtoms>  (129) 


>  <Gold.Version>  (129) 
5.3.0

>  <PLP.Chemscore.CHOScore>  (129) 


>  <PLP.Chemscore.Hbond>  (129) 


>  <PLP.Chemscore.Internal.Correction>  (129) 


>  <PLP.Chemscore.Metal>  (129) 


>  <PLP.Fitness>  (129) 


>  <PLP.PLP>  (129) 


>  <PLP.ligand.clash>  (129) 


>  <PLP.ligand.torsion>  (129) 


>  <PLP.part.buried>  (129) 


>  <PLP.part.hbond>  (129) 


>  <PLP.part.metal>  (129) 


>  <PLP.part.nonpolar>  (129) 


>  <PLP.part.repulsive>  (129) 


>  <Version>  (129) 


$$$$
3129|Compound_1920|Compounds_3D_F|sdf|560|dock9|1
     RDKit          3D

 20 21  0  0  0  0  0  0  0  0999 V2000
   -8.0620  -15.9096   12.1408 N   0  0  0  0  0  0  0  0  0  0  0  0
   -8.1444  -14.6600   11.6420 C   0  0  0  0  0  0  0  0  0  0  0  0
   -9.0942  -14.3424   10.9521 O   0  0  0  0  0  0  0  0  0  0  0  0
   -7.0833  -13.6795   11.9334 C   0  0  0  0  0  0  0  0  0  0  0  0
   -5.7756  -13.9120   12.2841 C   0  0  0  0  0  0  0  0  0  0  0  0
   -5.2110  -12.7121   12.4433 O   0  0  0  0  0  0  0  0  0  0  0  0
   -5.9733  -11.7992   12.2431 N   0  0  0  0  0  0  0  0  0  0  0  0
   -7.1618  -12.2109   11.9145 C   0  0  0  0  0  0  0  0  0  0  0  0
   -8.3667  -11.3637   11.5934 C   0  0  0  0  0  0  0  0  0  0  0  0
   -7.9741   -9.8850   11.6275 C   0  0  0  0  0  0  0  0  0  0  0  0
   -5.1107  -15.2529   12.4559 C   0  0  0  0  0  0  0  0  0  0  0  0
   -9.0626  -16.8394   11.8616 C   0  0  0  0  0  0  0  0  0  0  0  0
  -10.3480  -16.6876   12.0419 N   0  0  0  0  0  0  0  0  0  0  0  0
  -10.9625  -17.6737   11.7045 O   0  0  0  0  0  0  0  0  0  0  0  0
  -10.1469  -18.6331   11.2439 C   0  0  0  0  0  0  0  0  0  0  0  0
   -8.8897  -18.1411   11.3190 C   0  0  0  0  0  0  0  0  0  0  0  0
  -10.5530  -19.9936   10.7374 C   0  0  0  0  0  0  0  0  0  0  0  0
  -11.2570  -20.7644   11.8555 C   0  0  0  0  0  0  0  0  0  0  0  0
  -11.5052  -19.8319    9.5509 C   0  0  0  0  0  0  0  0  0  0  0  0
   -9.3088  -20.7637   10.2919 C   0  0  0  0  0  0  0  0  0  0  0  0
  1  2  1  0
  1 12  1  0
  2  3  2  0
  2  4  1  0
  4  5  2  0
  4  8  1  0
  5  6  1  0
  5 11  1  0
  6  7  1  0
  7  8  2  0
  8  9  1  0
  9 10  1  0
 12 13  2  0
 12 16  1  0
 13 14  1  0
 14 15  1  0
 15 16  2  0
 15 17  1  0
 17 18  1  0
 17 19  1  0
 17 20  1  0
M  END
>  <Gold.Gold.Protein.RotatedWaterAtoms>  (130) 


>  <Gold.Id.Protein>  (130) 


>  <Gold.PLP.Chemscore.CHOScore>  (130) 
0.0000

>  <Gold.PLP.Chemscore.Hbond>  (130) 
0.8960

>  <Gold.PLP.Chemscore.Internal.Correction>  (130) 
0.0111

>  <Gold.PLP.Chemscore.Metal>  (130) 
0.0000

>  <Gold.PLP.Fitness>  (130) 
52.8121

>  <Gold.PLP.PLP>  (130) 
-51.5641

>  <Gold.PLP.ligand.clash>  (130) 
0.0000

>  <Gold.PLP.ligand.torsion>  (130) 
0.7255

>  <Gold.PLP.part.buried>  (130) 
-10.8414

>  <Gold.PLP.part.hbond>  (130) 
-2.4868

>  <Gold.PLP.part.metal>  (130) 
0.0000

>  <Gold.PLP.part.nonpolar>  (130) 
-39.7298

>  <Gold.PLP.part.repulsive>  (130) 
0.9462

>  <Gold.Protein.RotatedAtoms>  (130) 


>  <Gold.Protein.RotatedTorsions>  (130) 


>  <Gold.Protein.RotatedWaterAtoms>  (130) 


>  <Gold.Version>  (130) 
5.3.0

>  <PLP.Chemscore.CHOScore>  (130) 


>  <PLP.Chemscore.Hbond>  (130) 


>  <PLP.Chemscore.Internal.Correction>  (130) 


>  <PLP.Chemscore.Metal>  (130) 


>  <PLP.Fitness>  (130) 


>  <PLP.PLP>  (130) 


>  <PLP.ligand.clash>  (130) 


>  <PLP.ligand.torsion>  (130) 


>  <PLP.part.buried>  (130) 


>  <PLP.part.hbond>  (130) 


>  <PLP.part.metal>  (130) 


>  <PLP.part.nonpolar>  (130) 


>  <PLP.part.repulsive>  (130) 


>  <Version>  (130) 


$$$$
3130|Compound_1924|Compounds_3D_F|sdf|561|dock1|1
     RDKit          3D

 20 21  0  0  0  0  0  0  0  0999 V2000
   -8.9425  -16.6046   12.3791 N   0  0  0  0  0  0  0  0  0  0  0  0
   -8.4996  -15.6353   11.5536 C   0  0  0  0  0  0  0  0  0  0  0  0
   -9.0007  -15.4975   10.4541 O   0  0  0  0  0  0  0  0  0  0  0  0
   -7.4085  -14.7430   11.9845 C   0  0  0  0  0  0  0  0  0  0  0  0
   -6.1728  -15.0798   12.4811 C   0  0  0  0  0  0  0  0  0  0  0  0
   -5.5410  -13.9290   12.7268 O   0  0  0  0  0  0  0  0  0  0  0  0
   -6.2025  -12.9578   12.4554 N   0  0  0  0  0  0  0  0  0  0  0  0
   -7.3720  -13.2727   11.9830 C   0  0  0  0  0  0  0  0  0  0  0  0
   -8.4618  -12.3311   11.5382 C   0  0  0  0  0  0  0  0  0  0  0  0
   -7.9479  -10.8919   11.5998 C   0  0  0  0  0  0  0  0  0  0  0  0
   -5.6370  -16.4699   12.7052 C   0  0  0  0  0  0  0  0  0  0  0  0
   -9.9705  -17.4517   11.9705 C   0  0  0  0  0  0  0  0  0  0  0  0
  -11.2369  -17.3063   12.2488 N   0  0  0  0  0  0  0  0  0  0  0  0
  -11.9405  -18.3768   11.6452 O   0  0  0  0  0  0  0  0  0  0  0  0
  -10.9927  -19.1872   10.9733 N   0  0  0  0  0  0  0  0  0  0  0  0
   -9.8157  -18.6557   11.1475 C   0  0  0  0  0  0  0  0  0  0  0  0
   -8.6133  -19.1508   10.6449 N   0  0  0  0  0  0  0  0  0  0  0  0
   -8.6047  -20.2772    9.9053 C   0  0  0  0  0  0  0  0  0  0  0  0
   -9.6437  -20.8600    9.6768 O   0  0  0  0  0  0  0  0  0  0  0  0
   -7.3051  -20.8128    9.3613 C   0  0  0  0  0  0  0  0  0  0  0  0
  1  2  1  0
  1 12  1  0
  2  3  2  0
  2  4  1  0
  4  5  2  0
  4  8  1  0
  5  6  1  0
  5 11  1  0
  6  7  1  0
  7  8  2  0
  8  9  1  0
  9 10  1  0
 12 13  2  0
 12 16  1  0
 13 14  1  0
 14 15  1  0
 15 16  2  0
 16 17  1  0
 17 18  1  0
 18 19  2  0
 18 20  1  0
M  END
>  <Gold.Gold.Protein.RotatedWaterAtoms>  (131) 


>  <Gold.Id.Protein>  (131) 


>  <Gold.PLP.Chemscore.CHOScore>  (131) 
0.0000

>  <Gold.PLP.Chemscore.Hbond>  (131) 
0.9913

>  <Gold.PLP.Chemscore.Internal.Correction>  (131) 
0.0179

>  <Gold.PLP.Chemscore.Metal>  (131) 
0.0000

>  <Gold.PLP.Fitness>  (131) 
39.9429

>  <Gold.PLP.PLP>  (131) 
-40.3499

>  <Gold.PLP.ligand.clash>  (131) 
0.0000

>  <Gold.PLP.ligand.torsion>  (131) 
1.6993

>  <Gold.PLP.part.buried>  (131) 
-6.8087

>  <Gold.PLP.part.hbond>  (131) 
-3.5443

>  <Gold.PLP.part.metal>  (131) 
0.0000

>  <Gold.PLP.part.nonpolar>  (131) 
-31.2499

>  <Gold.PLP.part.repulsive>  (131) 
0.7492

>  <Gold.Protein.RotatedAtoms>  (131) 


>  <Gold.Protein.RotatedTorsions>  (131) 


>  <Gold.Protein.RotatedWaterAtoms>  (131) 


>  <Gold.Version>  (131) 
5.3.0

>  <PLP.Chemscore.CHOScore>  (131) 


>  <PLP.Chemscore.Hbond>  (131) 


>  <PLP.Chemscore.Internal.Correction>  (131) 


>  <PLP.Chemscore.Metal>  (131) 


>  <PLP.Fitness>  (131) 


>  <PLP.PLP>  (131) 


>  <PLP.ligand.clash>  (131) 


>  <PLP.ligand.torsion>  (131) 


>  <PLP.part.buried>  (131) 


>  <PLP.part.hbond>  (131) 


>  <PLP.part.metal>  (131) 


>  <PLP.part.nonpolar>  (131) 


>  <PLP.part.repulsive>  (131) 


>  <Version>  (131) 


$$$$
3131|Compound_1924|Compounds_3D_F|sdf|561|dock2|1
     RDKit          3D

 20 21  0  0  0  0  0  0  0  0999 V2000
   -8.5813  -17.0237   11.7839 N   0  0  0  0  0  0  0  0  0  0  0  0
   -8.6961  -15.6895   11.9389 C   0  0  0  0  0  0  0  0  0  0  0  0
   -9.7930  -15.1656   11.9033 O   0  0  0  0  0  0  0  0  0  0  0  0
   -7.4919  -14.8667   12.1516 C   0  0  0  0  0  0  0  0  0  0  0  0
   -7.3709  -13.4991   12.1084 C   0  0  0  0  0  0  0  0  0  0  0  0
   -6.0886  -13.2277   12.3651 O   0  0  0  0  0  0  0  0  0  0  0  0
   -5.4239  -14.2158   12.5554 N   0  0  0  0  0  0  0  0  0  0  0  0
   -6.1248  -15.3072   12.4686 C   0  0  0  0  0  0  0  0  0  0  0  0
   -5.6378  -16.7228   12.6450 C   0  0  0  0  0  0  0  0  0  0  0  0
   -4.4906  -16.9919   11.6700 C   0  0  0  0  0  0  0  0  0  0  0  0
   -8.4658  -12.5034   11.8266 C   0  0  0  0  0  0  0  0  0  0  0  0
   -9.7188  -17.8014   11.5777 C   0  0  0  0  0  0  0  0  0  0  0  0
  -10.8438  -17.6984   12.2305 N   0  0  0  0  0  0  0  0  0  0  0  0
  -11.7369  -18.6685   11.7139 O   0  0  0  0  0  0  0  0  0  0  0  0
  -11.0585  -19.3714   10.6880 N   0  0  0  0  0  0  0  0  0  0  0  0
   -9.8596  -18.8714   10.5846 C   0  0  0  0  0  0  0  0  0  0  0  0
   -8.8755  -19.2873    9.6891 N   0  0  0  0  0  0  0  0  0  0  0  0
   -9.1425  -20.2641    8.7999 C   0  0  0  0  0  0  0  0  0  0  0  0
  -10.2397  -20.7811    8.7790 O   0  0  0  0  0  0  0  0  0  0  0  0
   -8.0791  -20.7140    7.8312 C   0  0  0  0  0  0  0  0  0  0  0  0
  1  2  1  0
  1 12  1  0
  2  3  2  0
  2  4  1  0
  4  5  2  0
  4  8  1  0
  5  6  1  0
  5 11  1  0
  6  7  1  0
  7  8  2  0
  8  9  1  0
  9 10  1  0
 12 13  2  0
 12 16  1  0
 13 14  1  0
 14 15  1  0
 15 16  2  0
 16 17  1  0
 17 18  1  0
 18 19  2  0
 18 20  1  0
M  END
>  <Gold.Gold.Protein.RotatedWaterAtoms>  (132) 


>  <Gold.Id.Protein>  (132) 


>  <Gold.PLP.Chemscore.CHOScore>  (132) 
0.0000

>  <Gold.PLP.Chemscore.Hbond>  (132) 
1.4656

>  <Gold.PLP.Chemscore.Internal.Correction>  (132) 
0.0179

>  <Gold.PLP.Chemscore.Metal>  (132) 
0.0000

>  <Gold.PLP.Fitness>  (132) 
42.1940

>  <Gold.PLP.PLP>  (132) 
-38.6739

>  <Gold.PLP.ligand.clash>  (132) 
0.0000

>  <Gold.PLP.ligand.torsion>  (132) 
0.4473

>  <Gold.PLP.part.buried>  (132) 
-10.4459

>  <Gold.PLP.part.hbond>  (132) 
-2.0556

>  <Gold.PLP.part.metal>  (132) 
0.0000

>  <Gold.PLP.part.nonpolar>  (132) 
-27.5805

>  <Gold.PLP.part.repulsive>  (132) 
0.7315

>  <Gold.Protein.RotatedAtoms>  (132) 


>  <Gold.Protein.RotatedTorsions>  (132) 


>  <Gold.Protein.RotatedWaterAtoms>  (132) 


>  <Gold.Version>  (132) 
5.3.0

>  <PLP.Chemscore.CHOScore>  (132) 


>  <PLP.Chemscore.Hbond>  (132) 


>  <PLP.Chemscore.Internal.Correction>  (132) 


>  <PLP.Chemscore.Metal>  (132) 


>  <PLP.Fitness>  (132) 


>  <PLP.PLP>  (132) 


>  <PLP.ligand.clash>  (132) 


>  <PLP.ligand.torsion>  (132) 


>  <PLP.part.buried>  (132) 


>  <PLP.part.hbond>  (132) 


>  <PLP.part.metal>  (132) 


>  <PLP.part.nonpolar>  (132) 


>  <PLP.part.repulsive>  (132) 


>  <Version>  (132) 


$$$$
3132|Compound_1924|Compounds_3D_F|sdf|561|dock3|1
     RDKit          3D

 20 21  0  0  0  0  0  0  0  0999 V2000
   -8.1625  -16.8161   11.0835 N   0  0  0  0  0  0  0  0  0  0  0  0
   -8.2187  -15.4704   11.0273 C   0  0  0  0  0  0  0  0  0  0  0  0
   -9.1045  -14.9248   10.3975 O   0  0  0  0  0  0  0  0  0  0  0  0
   -7.2064  -14.6613   11.7295 C   0  0  0  0  0  0  0  0  0  0  0  0
   -7.2833  -13.3474   12.1232 C   0  0  0  0  0  0  0  0  0  0  0  0
   -6.1213  -13.0658   12.7186 O   0  0  0  0  0  0  0  0  0  0  0  0
   -5.3623  -14.0027   12.7438 N   0  0  0  0  0  0  0  0  0  0  0  0
   -5.8676  -15.0632   12.1869 C   0  0  0  0  0  0  0  0  0  0  0  0
   -5.2158  -16.4137   12.0335 C   0  0  0  0  0  0  0  0  0  0  0  0
   -4.8979  -16.9855   13.4159 C   0  0  0  0  0  0  0  0  0  0  0  0
   -8.4457  -12.4103   11.9226 C   0  0  0  0  0  0  0  0  0  0  0  0
   -9.1161  -17.5816   10.4158 C   0  0  0  0  0  0  0  0  0  0  0  0
  -10.3775  -17.6796   10.7348 N   0  0  0  0  0  0  0  0  0  0  0  0
  -10.9946  -18.5520    9.8054 O   0  0  0  0  0  0  0  0  0  0  0  0
   -9.9995  -18.9765    8.8909 N   0  0  0  0  0  0  0  0  0  0  0  0
   -8.8759  -18.4096    9.2295 C   0  0  0  0  0  0  0  0  0  0  0  0
   -7.6525  -18.5692    8.5805 N   0  0  0  0  0  0  0  0  0  0  0  0
   -7.5648  -19.3584    7.4918 C   0  0  0  0  0  0  0  0  0  0  0  0
   -8.5510  -19.9299    7.0766 O   0  0  0  0  0  0  0  0  0  0  0  0
   -6.2424  -19.5310    6.7894 C   0  0  0  0  0  0  0  0  0  0  0  0
  1  2  1  0
  1 12  1  0
  2  3  2  0
  2  4  1  0
  4  5  2  0
  4  8  1  0
  5  6  1  0
  5 11  1  0
  6  7  1  0
  7  8  2  0
  8  9  1  0
  9 10  1  0
 12 13  2  0
 12 16  1  0
 13 14  1  0
 14 15  1  0
 15 16  2  0
 16 17  1  0
 17 18  1  0
 18 19  2  0
 18 20  1  0
M  END
>  <Gold.Gold.Protein.RotatedWaterAtoms>  (133) 


>  <Gold.Id.Protein>  (133) 


>  <Gold.PLP.Chemscore.CHOScore>  (133) 
0.0000

>  <Gold.PLP.Chemscore.Hbond>  (133) 
1.9440

>  <Gold.PLP.Chemscore.Internal.Correction>  (133) 
0.0179

>  <Gold.PLP.Chemscore.Metal>  (133) 
0.0000

>  <Gold.PLP.Fitness>  (133) 
39.0136

>  <Gold.PLP.PLP>  (133) 
-34.8476

>  <Gold.PLP.ligand.clash>  (133) 
0.0000

>  <Gold.PLP.ligand.torsion>  (133) 
0.8419

>  <Gold.PLP.part.buried>  (133) 
-9.4751

>  <Gold.PLP.part.hbond>  (133) 
-4.0000

>  <Gold.PLP.part.metal>  (133) 
0.0000

>  <Gold.PLP.part.nonpolar>  (133) 
-22.2818

>  <Gold.PLP.part.repulsive>  (133) 
1.2088

>  <Gold.Protein.RotatedAtoms>  (133) 


>  <Gold.Protein.RotatedTorsions>  (133) 


>  <Gold.Protein.RotatedWaterAtoms>  (133) 


>  <Gold.Version>  (133) 
5.3.0

>  <PLP.Chemscore.CHOScore>  (133) 


>  <PLP.Chemscore.Hbond>  (133) 


>  <PLP.Chemscore.Internal.Correction>  (133) 


>  <PLP.Chemscore.Metal>  (133) 


>  <PLP.Fitness>  (133) 


>  <PLP.PLP>  (133) 


>  <PLP.ligand.clash>  (133) 


>  <PLP.ligand.torsion>  (133) 


>  <PLP.part.buried>  (133) 


>  <PLP.part.hbond>  (133) 


>  <PLP.part.metal>  (133) 


>  <PLP.part.nonpolar>  (133) 


>  <PLP.part.repulsive>  (133) 


>  <Version>  (133) 


$$$$
3133|Compound_1924|Compounds_3D_F|sdf|561|dock4|1
     RDKit          3D

 20 21  0  0  0  0  0  0  0  0999 V2000
   -8.2328  -16.0197   11.7286 N   0  0  0  0  0  0  0  0  0  0  0  0
   -8.4555  -14.7081   11.9460 C   0  0  0  0  0  0  0  0  0  0  0  0
   -9.5898  -14.3045   12.1173 O   0  0  0  0  0  0  0  0  0  0  0  0
   -7.3239  -13.7642   11.9759 C   0  0  0  0  0  0  0  0  0  0  0  0
   -5.9882  -14.0343   12.1498 C   0  0  0  0  0  0  0  0  0  0  0  0
   -5.3583  -12.8575   12.1015 O   0  0  0  0  0  0  0  0  0  0  0  0
   -6.1052  -11.9270   11.9258 N   0  0  0  0  0  0  0  0  0  0  0  0
   -7.3456  -12.3018   11.8208 C   0  0  0  0  0  0  0  0  0  0  0  0
   -8.5501  -11.4234   11.5979 C   0  0  0  0  0  0  0  0  0  0  0  0
   -8.1178   -9.9564   11.5996 C   0  0  0  0  0  0  0  0  0  0  0  0
   -5.3590  -15.3876   12.3552 C   0  0  0  0  0  0  0  0  0  0  0  0
   -9.3025  -16.9117   11.6951 C   0  0  0  0  0  0  0  0  0  0  0  0
  -10.4766  -16.7177   12.2303 N   0  0  0  0  0  0  0  0  0  0  0  0
  -11.2685  -17.8622   11.9683 O   0  0  0  0  0  0  0  0  0  0  0  0
  -10.4752  -18.7707   11.2254 N   0  0  0  0  0  0  0  0  0  0  0  0
   -9.3046  -18.2268   11.0460 C   0  0  0  0  0  0  0  0  0  0  0  0
   -8.2340  -18.7999   10.3613 N   0  0  0  0  0  0  0  0  0  0  0  0
   -8.1818  -20.1352   10.1879 C   0  0  0  0  0  0  0  0  0  0  0  0
   -9.0670  -20.8384   10.6278 O   0  0  0  0  0  0  0  0  0  0  0  0
   -7.0247  -20.7553    9.4474 C   0  0  0  0  0  0  0  0  0  0  0  0
  1  2  1  0
  1 12  1  0
  2  3  2  0
  2  4  1  0
  4  5  2  0
  4  8  1  0
  5  6  1  0
  5 11  1  0
  6  7  1  0
  7  8  2  0
  8  9  1  0
  9 10  1  0
 12 13  2  0
 12 16  1  0
 13 14  1  0
 14 15  1  0
 15 16  2  0
 16 17  1  0
 17 18  1  0
 18 19  2  0
 18 20  1  0
M  END
>  <Gold.Gold.Protein.RotatedWaterAtoms>  (134) 


>  <Gold.Id.Protein>  (134) 


>  <Gold.PLP.Chemscore.CHOScore>  (134) 
0.0000

>  <Gold.PLP.Chemscore.Hbond>  (134) 
0.9913

>  <Gold.PLP.Chemscore.Internal.Correction>  (134) 
0.0179

>  <Gold.PLP.Chemscore.Metal>  (134) 
0.0000

>  <Gold.PLP.Fitness>  (134) 
49.4075

>  <Gold.PLP.PLP>  (134) 
-47.1653

>  <Gold.PLP.ligand.clash>  (134) 
0.0000

>  <Gold.PLP.ligand.torsion>  (134) 
0.3747

>  <Gold.PLP.part.buried>  (134) 
-9.1124

>  <Gold.PLP.part.hbond>  (134) 
-4.1189

>  <Gold.PLP.part.metal>  (134) 
0.0000

>  <Gold.PLP.part.nonpolar>  (134) 
-33.6173

>  <Gold.PLP.part.repulsive>  (134) 
0.8523

>  <Gold.Protein.RotatedAtoms>  (134) 


>  <Gold.Protein.RotatedTorsions>  (134) 


>  <Gold.Protein.RotatedWaterAtoms>  (134) 


>  <Gold.Version>  (134) 
5.3.0

>  <PLP.Chemscore.CHOScore>  (134) 


>  <PLP.Chemscore.Hbond>  (134) 


>  <PLP.Chemscore.Internal.Correction>  (134) 


>  <PLP.Chemscore.Metal>  (134) 


>  <PLP.Fitness>  (134) 


>  <PLP.PLP>  (134) 


>  <PLP.ligand.clash>  (134) 


>  <PLP.ligand.torsion>  (134) 


>  <PLP.part.buried>  (134) 


>  <PLP.part.hbond>  (134) 


>  <PLP.part.metal>  (134) 


>  <PLP.part.nonpolar>  (134) 


>  <PLP.part.repulsive>  (134) 


>  <Version>  (134) 


$$$$
3134|Compound_1924|Compounds_3D_F|sdf|561|dock5|1
     RDKit          3D

 20 21  0  0  0  0  0  0  0  0999 V2000
   -9.6140  -16.1181   12.0489 N   0  0  0  0  0  0  0  0  0  0  0  0
   -8.2762  -16.1974   11.9029 C   0  0  0  0  0  0  0  0  0  0  0  0
   -7.7647  -17.2410   11.5451 O   0  0  0  0  0  0  0  0  0  0  0  0
   -7.4345  -15.0188   12.1770 C   0  0  0  0  0  0  0  0  0  0  0  0
   -7.8083  -13.6992   12.2539 C   0  0  0  0  0  0  0  0  0  0  0  0
   -6.6963  -13.0096   12.5223 O   0  0  0  0  0  0  0  0  0  0  0  0
   -5.7174  -13.7074   12.6185 N   0  0  0  0  0  0  0  0  0  0  0  0
   -5.9887  -14.9665   12.4416 C   0  0  0  0  0  0  0  0  0  0  0  0
   -5.0247  -16.1244   12.4877 C   0  0  0  0  0  0  0  0  0  0  0  0
   -5.0094  -16.8285   11.1301 C   0  0  0  0  0  0  0  0  0  0  0  0
   -9.1954  -13.1405   12.0711 C   0  0  0  0  0  0  0  0  0  0  0  0
  -10.4097  -17.2332   11.7949 C   0  0  0  0  0  0  0  0  0  0  0  0
  -11.4442  -17.6096   12.4954 N   0  0  0  0  0  0  0  0  0  0  0  0
  -11.9670  -18.7844   11.9021 O   0  0  0  0  0  0  0  0  0  0  0  0
  -11.1618  -19.0909   10.7777 N   0  0  0  0  0  0  0  0  0  0  0  0
  -10.2328  -18.1812   10.6900 C   0  0  0  0  0  0  0  0  0  0  0  0
   -9.2359  -18.1229    9.7173 N   0  0  0  0  0  0  0  0  0  0  0  0
   -9.1497  -17.0523    8.9035 C   0  0  0  0  0  0  0  0  0  0  0  0
   -9.9400  -16.1392    9.0178 O   0  0  0  0  0  0  0  0  0  0  0  0
   -8.0719  -16.9886    7.8519 C   0  0  0  0  0  0  0  0  0  0  0  0
  1  2  1  0
  1 12  1  0
  2  3  2  0
  2  4  1  0
  4  5  2  0
  4  8  1  0
  5  6  1  0
  5 11  1  0
  6  7  1  0
  7  8  2  0
  8  9  1  0
  9 10  1  0
 12 13  2  0
 12 16  1  0
 13 14  1  0
 14 15  1  0
 15 16  2  0
 16 17  1  0
 17 18  1  0
 18 19  2  0
 18 20  1  0
M  END
>  <Gold.Gold.Protein.RotatedWaterAtoms>  (135) 


>  <Gold.Id.Protein>  (135) 


>  <Gold.PLP.Chemscore.CHOScore>  (135) 
0.0000

>  <Gold.PLP.Chemscore.Hbond>  (135) 
1.7097

>  <Gold.PLP.Chemscore.Internal.Correction>  (135) 
0.0179

>  <Gold.PLP.Chemscore.Metal>  (135) 
0.0000

>  <Gold.PLP.Fitness>  (135) 
42.7085

>  <Gold.PLP.PLP>  (135) 
-39.6330

>  <Gold.PLP.ligand.clash>  (135) 
0.0000

>  <Gold.PLP.ligand.torsion>  (135) 
1.0358

>  <Gold.PLP.part.buried>  (135) 
-7.3793

>  <Gold.PLP.part.hbond>  (135) 
-4.0000

>  <Gold.PLP.part.metal>  (135) 
0.0000

>  <Gold.PLP.part.nonpolar>  (135) 
-27.9802

>  <Gold.PLP.part.repulsive>  (135) 
0.8140

>  <Gold.Protein.RotatedAtoms>  (135) 


>  <Gold.Protein.RotatedTorsions>  (135) 


>  <Gold.Protein.RotatedWaterAtoms>  (135) 


>  <Gold.Version>  (135) 
5.3.0

>  <PLP.Chemscore.CHOScore>  (135) 


>  <PLP.Chemscore.Hbond>  (135) 


>  <PLP.Chemscore.Internal.Correction>  (135) 


>  <PLP.Chemscore.Metal>  (135) 


>  <PLP.Fitness>  (135) 


>  <PLP.PLP>  (135) 


>  <PLP.ligand.clash>  (135) 


>  <PLP.ligand.torsion>  (135) 


>  <PLP.part.buried>  (135) 


>  <PLP.part.hbond>  (135) 


>  <PLP.part.metal>  (135) 


>  <PLP.part.nonpolar>  (135) 


>  <PLP.part.repulsive>  (135) 


>  <Version>  (135) 


$$$$
3135|Compound_1924|Compounds_3D_F|sdf|561|dock6|1
     RDKit          3D

 20 21  0  0  0  0  0  0  0  0999 V2000
   -8.3931  -16.2697   11.6701 N   0  0  0  0  0  0  0  0  0  0  0  0
   -7.7567  -15.3186   10.9577 C   0  0  0  0  0  0  0  0  0  0  0  0
   -7.8682  -15.2894    9.7470 O   0  0  0  0  0  0  0  0  0  0  0  0
   -6.9263  -14.3145   11.6467 C   0  0  0  0  0  0  0  0  0  0  0  0
   -7.2262  -13.0043   11.9303 C   0  0  0  0  0  0  0  0  0  0  0  0
   -6.1615  -12.5043   12.5629 O   0  0  0  0  0  0  0  0  0  0  0  0
   -5.2729  -13.3076   12.7030 N   0  0  0  0  0  0  0  0  0  0  0  0
   -5.5747  -14.4702   12.2056 C   0  0  0  0  0  0  0  0  0  0  0  0
   -4.7177  -15.7102   12.1949 C   0  0  0  0  0  0  0  0  0  0  0  0
   -5.5026  -16.8768   12.7967 C   0  0  0  0  0  0  0  0  0  0  0  0
   -8.5014  -12.2759   11.5940 C   0  0  0  0  0  0  0  0  0  0  0  0
   -9.1741  -17.2221   11.0190 C   0  0  0  0  0  0  0  0  0  0  0  0
  -10.3641  -17.6137   11.3837 N   0  0  0  0  0  0  0  0  0  0  0  0
  -10.8050  -18.5879   10.4552 O   0  0  0  0  0  0  0  0  0  0  0  0
   -9.7803  -18.7554    9.4915 N   0  0  0  0  0  0  0  0  0  0  0  0
   -8.8029  -17.9512    9.8018 C   0  0  0  0  0  0  0  0  0  0  0  0
   -7.6053  -17.8130    9.1018 N   0  0  0  0  0  0  0  0  0  0  0  0
   -7.5011  -18.2856    7.8441 C   0  0  0  0  0  0  0  0  0  0  0  0
   -8.4501  -18.8313    7.3214 O   0  0  0  0  0  0  0  0  0  0  0  0
   -6.2067  -18.1362    7.0866 C   0  0  0  0  0  0  0  0  0  0  0  0
  1  2  1  0
  1 12  1  0
  2  3  2  0
  2  4  1  0
  4  5  2  0
  4  8  1  0
  5  6  1  0
  5 11  1  0
  6  7  1  0
  7  8  2  0
  8  9  1  0
  9 10  1  0
 12 13  2  0
 12 16  1  0
 13 14  1  0
 14 15  1  0
 15 16  2  0
 16 17  1  0
 17 18  1  0
 18 19  2  0
 18 20  1  0
M  END
>  <Gold.Gold.Protein.RotatedWaterAtoms>  (136) 


>  <Gold.Id.Protein>  (136) 


>  <Gold.PLP.Chemscore.CHOScore>  (136) 
0.0000

>  <Gold.PLP.Chemscore.Hbond>  (136) 
2.0000

>  <Gold.PLP.Chemscore.Internal.Correction>  (136) 
0.0179

>  <Gold.PLP.Chemscore.Metal>  (136) 
0.0000

>  <Gold.PLP.Fitness>  (136) 
39.6363

>  <Gold.PLP.PLP>  (136) 
-37.4037

>  <Gold.PLP.ligand.clash>  (136) 
0.0000

>  <Gold.PLP.ligand.torsion>  (136) 
1.8926

>  <Gold.PLP.part.buried>  (136) 
-9.7664

>  <Gold.PLP.part.hbond>  (136) 
-2.0000

>  <Gold.PLP.part.metal>  (136) 
0.0000

>  <Gold.PLP.part.nonpolar>  (136) 
-27.0254

>  <Gold.PLP.part.repulsive>  (136) 
0.7398

>  <Gold.Protein.RotatedAtoms>  (136) 


>  <Gold.Protein.RotatedTorsions>  (136) 


>  <Gold.Protein.RotatedWaterAtoms>  (136) 


>  <Gold.Version>  (136) 
5.3.0

>  <PLP.Chemscore.CHOScore>  (136) 


>  <PLP.Chemscore.Hbond>  (136) 


>  <PLP.Chemscore.Internal.Correction>  (136) 


>  <PLP.Chemscore.Metal>  (136) 


>  <PLP.Fitness>  (136) 


>  <PLP.PLP>  (136) 


>  <PLP.ligand.clash>  (136) 


>  <PLP.ligand.torsion>  (136) 


>  <PLP.part.buried>  (136) 


>  <PLP.part.hbond>  (136) 


>  <PLP.part.metal>  (136) 


>  <PLP.part.nonpolar>  (136) 


>  <PLP.part.repulsive>  (136) 


>  <Version>  (136) 


$$$$
3136|Compound_1924|Compounds_3D_F|sdf|561|dock7|1
     RDKit          3D

 20 21  0  0  0  0  0  0  0  0999 V2000
   -9.3121  -16.4575   11.8988 N   0  0  0  0  0  0  0  0  0  0  0  0
   -7.9780  -16.3997   11.7149 C   0  0  0  0  0  0  0  0  0  0  0  0
   -7.3921  -17.3408   11.2148 O   0  0  0  0  0  0  0  0  0  0  0  0
   -7.2303  -15.1959   12.1201 C   0  0  0  0  0  0  0  0  0  0  0  0
   -7.6913  -13.9098   12.2634 C   0  0  0  0  0  0  0  0  0  0  0  0
   -6.6428  -13.1762   12.6464 O   0  0  0  0  0  0  0  0  0  0  0  0
   -5.6286  -13.8196   12.7553 N   0  0  0  0  0  0  0  0  0  0  0  0
   -5.8084  -15.0766   12.4766 C   0  0  0  0  0  0  0  0  0  0  0  0
   -4.7768  -16.1754   12.5033 C   0  0  0  0  0  0  0  0  0  0  0  0
   -4.6363  -16.7761   11.1039 C   0  0  0  0  0  0  0  0  0  0  0  0
   -9.0984  -13.4231   12.0336 C   0  0  0  0  0  0  0  0  0  0  0  0
  -10.0187  -17.5972   11.5206 C   0  0  0  0  0  0  0  0  0  0  0  0
  -10.9033  -18.2241   12.2466 N   0  0  0  0  0  0  0  0  0  0  0  0
  -11.3819  -19.3247   11.4947 O   0  0  0  0  0  0  0  0  0  0  0  0
  -10.7127  -19.3135   10.2463 N   0  0  0  0  0  0  0  0  0  0  0  0
   -9.9014  -18.2938   10.2354 C   0  0  0  0  0  0  0  0  0  0  0  0
   -9.0592  -17.9312    9.1853 N   0  0  0  0  0  0  0  0  0  0  0  0
   -9.1023  -16.6795    8.6880 C   0  0  0  0  0  0  0  0  0  0  0  0
   -9.8741  -15.8683    9.1546 O   0  0  0  0  0  0  0  0  0  0  0  0
   -8.1918  -16.2868    7.5529 C   0  0  0  0  0  0  0  0  0  0  0  0
  1  2  1  0
  1 12  1  0
  2  3  2  0
  2  4  1  0
  4  5  2  0
  4  8  1  0
  5  6  1  0
  5 11  1  0
  6  7  1  0
  7  8  2  0
  8  9  1  0
  9 10  1  0
 12 13  2  0
 12 16  1  0
 13 14  1  0
 14 15  1  0
 15 16  2  0
 16 17  1  0
 17 18  1  0
 18 19  2  0
 18 20  1  0
M  END
>  <Gold.Gold.Protein.RotatedWaterAtoms>  (137) 


>  <Gold.Id.Protein>  (137) 


>  <Gold.PLP.Chemscore.CHOScore>  (137) 
0.0000

>  <Gold.PLP.Chemscore.Hbond>  (137) 
1.5440

>  <Gold.PLP.Chemscore.Internal.Correction>  (137) 
0.0037

>  <Gold.PLP.Chemscore.Metal>  (137) 
0.0000

>  <Gold.PLP.Fitness>  (137) 
43.2318

>  <Gold.PLP.PLP>  (137) 
-40.9082

>  <Gold.PLP.ligand.clash>  (137) 
0.0000

>  <Gold.PLP.ligand.torsion>  (137) 
1.1561

>  <Gold.PLP.part.buried>  (137) 
-9.4765

>  <Gold.PLP.part.hbond>  (137) 
-3.0000

>  <Gold.PLP.part.metal>  (137) 
0.0000

>  <Gold.PLP.part.nonpolar>  (137) 
-29.6322

>  <Gold.PLP.part.repulsive>  (137) 
1.7757

>  <Gold.Protein.RotatedAtoms>  (137) 


>  <Gold.Protein.RotatedTorsions>  (137) 


>  <Gold.Protein.RotatedWaterAtoms>  (137) 


>  <Gold.Version>  (137) 
5.3.0

>  <PLP.Chemscore.CHOScore>  (137) 


>  <PLP.Chemscore.Hbond>  (137) 


>  <PLP.Chemscore.Internal.Correction>  (137) 


>  <PLP.Chemscore.Metal>  (137) 


>  <PLP.Fitness>  (137) 


>  <PLP.PLP>  (137) 


>  <PLP.ligand.clash>  (137) 


>  <PLP.ligand.torsion>  (137) 


>  <PLP.part.buried>  (137) 


>  <PLP.part.hbond>  (137) 


>  <PLP.part.metal>  (137) 


>  <PLP.part.nonpolar>  (137) 


>  <PLP.part.repulsive>  (137) 


>  <Version>  (137) 


$$$$
3137|Compound_1924|Compounds_3D_F|sdf|561|dock8|1
     RDKit          3D

 20 21  0  0  0  0  0  0  0  0999 V2000
   -8.5703  -16.6944   11.9000 N   0  0  0  0  0  0  0  0  0  0  0  0
   -8.4926  -15.3623   11.7088 C   0  0  0  0  0  0  0  0  0  0  0  0
   -9.4509  -14.7540   11.2723 O   0  0  0  0  0  0  0  0  0  0  0  0
   -7.2461  -14.6440   12.0292 C   0  0  0  0  0  0  0  0  0  0  0  0
   -6.0153  -15.1649   12.3466 C   0  0  0  0  0  0  0  0  0  0  0  0
   -5.2083  -14.1209   12.5537 O   0  0  0  0  0  0  0  0  0  0  0  0
   -5.7611  -13.0587   12.4100 N   0  0  0  0  0  0  0  0  0  0  0  0
   -7.0118  -13.1929   12.0818 C   0  0  0  0  0  0  0  0  0  0  0  0
   -8.0112  -12.0950   11.8209 C   0  0  0  0  0  0  0  0  0  0  0  0
   -7.3091  -10.7385   11.8977 C   0  0  0  0  0  0  0  0  0  0  0  0
   -5.6485  -16.6229   12.4431 C   0  0  0  0  0  0  0  0  0  0  0  0
   -9.7466  -17.3748   11.5926 C   0  0  0  0  0  0  0  0  0  0  0  0
  -10.8931  -17.2319   12.1990 N   0  0  0  0  0  0  0  0  0  0  0  0
  -11.8235  -18.1024   11.5808 O   0  0  0  0  0  0  0  0  0  0  0  0
  -11.1446  -18.7878   10.5435 N   0  0  0  0  0  0  0  0  0  0  0  0
   -9.9106  -18.3692   10.5272 C   0  0  0  0  0  0  0  0  0  0  0  0
   -8.9139  -18.7987    9.6523 N   0  0  0  0  0  0  0  0  0  0  0  0
   -9.1022  -19.9056    8.9070 C   0  0  0  0  0  0  0  0  0  0  0  0
  -10.1395  -20.5279    8.9977 O   0  0  0  0  0  0  0  0  0  0  0  0
   -8.0251  -20.3703    7.9606 C   0  0  0  0  0  0  0  0  0  0  0  0
  1  2  1  0
  1 12  1  0
  2  3  2  0
  2  4  1  0
  4  5  2  0
  4  8  1  0
  5  6  1  0
  5 11  1  0
  6  7  1  0
  7  8  2  0
  8  9  1  0
  9 10  1  0
 12 13  2  0
 12 16  1  0
 13 14  1  0
 14 15  1  0
 15 16  2  0
 16 17  1  0
 17 18  1  0
 18 19  2  0
 18 20  1  0
M  END
>  <Gold.Gold.Protein.RotatedWaterAtoms>  (138) 


>  <Gold.Id.Protein>  (138) 


>  <Gold.PLP.Chemscore.CHOScore>  (138) 
0.0000

>  <Gold.PLP.Chemscore.Hbond>  (138) 
1.5241

>  <Gold.PLP.Chemscore.Internal.Correction>  (138) 
0.0037

>  <Gold.PLP.Chemscore.Metal>  (138) 
0.0000

>  <Gold.PLP.Fitness>  (138) 
44.5773

>  <Gold.PLP.PLP>  (138) 
-42.3663

>  <Gold.PLP.ligand.clash>  (138) 
0.9047

>  <Gold.PLP.ligand.torsion>  (138) 
0.7301

>  <Gold.PLP.part.buried>  (138) 
-9.5004

>  <Gold.PLP.part.hbond>  (138) 
-3.3792

>  <Gold.PLP.part.metal>  (138) 
0.0000

>  <Gold.PLP.part.nonpolar>  (138) 
-30.1033

>  <Gold.PLP.part.repulsive>  (138) 
0.8248

>  <Gold.Protein.RotatedAtoms>  (138) 


>  <Gold.Protein.RotatedTorsions>  (138) 


>  <Gold.Protein.RotatedWaterAtoms>  (138) 


>  <Gold.Version>  (138) 
5.3.0

>  <PLP.Chemscore.CHOScore>  (138) 


>  <PLP.Chemscore.Hbond>  (138) 


>  <PLP.Chemscore.Internal.Correction>  (138) 


>  <PLP.Chemscore.Metal>  (138) 


>  <PLP.Fitness>  (138) 


>  <PLP.PLP>  (138) 


>  <PLP.ligand.clash>  (138) 


>  <PLP.ligand.torsion>  (138) 


>  <PLP.part.buried>  (138) 


>  <PLP.part.hbond>  (138) 


>  <PLP.part.metal>  (138) 


>  <PLP.part.nonpolar>  (138) 


>  <PLP.part.repulsive>  (138) 


>  <Version>  (138) 


$$$$
3138|Compound_1924|Compounds_3D_F|sdf|561|dock9|1
     RDKit          3D

 20 21  0  0  0  0  0  0  0  0999 V2000
   -8.5653  -16.4349   12.0235 N   0  0  0  0  0  0  0  0  0  0  0  0
   -8.5518  -15.1391   11.6521 C   0  0  0  0  0  0  0  0  0  0  0  0
   -9.5036  -14.6663   11.0609 O   0  0  0  0  0  0  0  0  0  0  0  0
   -7.3833  -14.2962   11.9630 C   0  0  0  0  0  0  0  0  0  0  0  0
   -6.1182  -14.6878   12.3280 C   0  0  0  0  0  0  0  0  0  0  0  0
   -5.4141  -13.5661   12.5022 O   0  0  0  0  0  0  0  0  0  0  0  0
   -6.0573  -12.5664   12.2988 N   0  0  0  0  0  0  0  0  0  0  0  0
   -7.2827  -12.8289   11.9530 C   0  0  0  0  0  0  0  0  0  0  0  0
   -8.3709  -11.8397   11.6222 C   0  0  0  0  0  0  0  0  0  0  0  0
   -7.7857  -10.4269   11.6016 C   0  0  0  0  0  0  0  0  0  0  0  0
   -5.6232  -16.1004   12.4989 C   0  0  0  0  0  0  0  0  0  0  0  0
   -9.6674  -17.2335   11.7254 C   0  0  0  0  0  0  0  0  0  0  0  0
  -10.8708  -17.0863   12.2077 N   0  0  0  0  0  0  0  0  0  0  0  0
  -11.6891  -18.0997   11.6519 O   0  0  0  0  0  0  0  0  0  0  0  0
  -10.8798  -18.8771   10.7874 N   0  0  0  0  0  0  0  0  0  0  0  0
   -9.6757  -18.3793   10.8101 C   0  0  0  0  0  0  0  0  0  0  0  0
   -8.5801  -18.8585   10.0936 N   0  0  0  0  0  0  0  0  0  0  0  0
   -8.6427  -20.0624    9.4913 C   0  0  0  0  0  0  0  0  0  0  0  0
   -9.6530  -20.7288    9.5728 O   0  0  0  0  0  0  0  0  0  0  0  0
   -7.4586  -20.5809    8.7161 C   0  0  0  0  0  0  0  0  0  0  0  0
  1  2  1  0
  1 12  1  0
  2  3  2  0
  2  4  1  0
  4  5  2  0
  4  8  1  0
  5  6  1  0
  5 11  1  0
  6  7  1  0
  7  8  2  0
  8  9  1  0
  9 10  1  0
 12 13  2  0
 12 16  1  0
 13 14  1  0
 14 15  1  0
 15 16  2  0
 16 17  1  0
 17 18  1  0
 18 19  2  0
 18 20  1  0
M  END
>  <Gold.Gold.Protein.RotatedWaterAtoms>  (139) 


>  <Gold.Id.Protein>  (139) 


>  <Gold.PLP.Chemscore.CHOScore>  (139) 
0.0000

>  <Gold.PLP.Chemscore.Hbond>  (139) 
1.2633

>  <Gold.PLP.Chemscore.Internal.Correction>  (139) 
0.0037

>  <Gold.PLP.Chemscore.Metal>  (139) 
0.0000

>  <Gold.PLP.Fitness>  (139) 
45.4052

>  <Gold.PLP.PLP>  (139) 
-43.2772

>  <Gold.PLP.ligand.clash>  (139) 
0.0359

>  <Gold.PLP.ligand.torsion>  (139) 
0.8148

>  <Gold.PLP.part.buried>  (139) 
-8.7798

>  <Gold.PLP.part.hbond>  (139) 
-2.8840

>  <Gold.PLP.part.metal>  (139) 
0.0000

>  <Gold.PLP.part.nonpolar>  (139) 
-31.7042

>  <Gold.PLP.part.repulsive>  (139) 
0.8177

>  <Gold.Protein.RotatedAtoms>  (139) 


>  <Gold.Protein.RotatedTorsions>  (139) 


>  <Gold.Protein.RotatedWaterAtoms>  (139) 


>  <Gold.Version>  (139) 
5.3.0

>  <PLP.Chemscore.CHOScore>  (139) 


>  <PLP.Chemscore.Hbond>  (139) 


>  <PLP.Chemscore.Internal.Correction>  (139) 


>  <PLP.Chemscore.Metal>  (139) 


>  <PLP.Fitness>  (139) 


>  <PLP.PLP>  (139) 


>  <PLP.ligand.clash>  (139) 


>  <PLP.ligand.torsion>  (139) 


>  <PLP.part.buried>  (139) 


>  <PLP.part.hbond>  (139) 


>  <PLP.part.metal>  (139) 


>  <PLP.part.nonpolar>  (139) 


>  <PLP.part.repulsive>  (139) 


>  <Version>  (139) 


$$$$
3139|Compound_1925|Compounds_3D_F|sdf|562|dock1|1
     RDKit          3D

 21 23  0  0  0  0  0  0  0  0999 V2000
  -13.5396  -19.2814   13.4275 O   0  0  0  0  0  0  0  0  0  0  0  0
  -12.9086  -19.0688   12.2491 C   0  0  0  0  0  0  0  0  0  0  0  0
  -13.5215  -19.4246   11.0317 C   0  0  0  0  0  0  0  0  0  0  0  0
  -14.7005  -19.9832   10.7063 N   0  0  0  0  0  0  0  0  0  0  0  0
  -14.7932  -20.1067    9.4280 N   0  0  0  0  0  0  0  0  0  0  0  0
  -13.6266  -19.6116    8.8261 N   0  0  0  0  0  0  0  0  0  0  0  0
  -12.8173  -19.1786    9.8393 C   0  0  0  0  0  0  0  0  0  0  0  0
  -11.6110  -18.6244    9.9002 N   0  0  0  0  0  0  0  0  0  0  0  0
  -11.0754  -18.3064   11.0667 C   0  0  0  0  0  0  0  0  0  0  0  0
  -11.7046  -18.5159   12.2154 N   0  0  0  0  0  0  0  0  0  0  0  0
   -9.8124  -17.7294   11.0893 N   0  0  0  0  0  0  0  0  0  0  0  0
   -9.5857  -16.6351   11.8421 C   0  0  0  0  0  0  0  0  0  0  0  0
  -10.4867  -16.1537   12.5024 O   0  0  0  0  0  0  0  0  0  0  0  0
   -8.2455  -16.0223   11.8667 C   0  0  0  0  0  0  0  0  0  0  0  0
   -7.0296  -16.6113   11.6174 C   0  0  0  0  0  0  0  0  0  0  0  0
   -6.1114  -15.6527   11.7607 O   0  0  0  0  0  0  0  0  0  0  0  0
   -6.5856  -14.5834   12.0578 N   0  0  0  0  0  0  0  0  0  0  0  0
   -7.8810  -14.6274   12.1585 C   0  0  0  0  0  0  0  0  0  0  0  0
   -8.8094  -13.4940   12.5094 C   0  0  0  0  0  0  0  0  0  0  0  0
   -8.6966  -12.3958   11.4499 C   0  0  0  0  0  0  0  0  0  0  0  0
   -6.7818  -18.0526   11.2534 C   0  0  0  0  0  0  0  0  0  0  0  0
  1  2  1  0
  2  3  2  0
  2 10  1  0
  3  4  1  0
  3  7  1  0
  4  5  2  0
  5  6  1  0
  6  7  1  0
  7  8  2  0
  8  9  1  0
  9 10  2  0
  9 11  1  0
 11 12  1  0
 12 13  2  0
 12 14  1  0
 14 15  2  0
 14 18  1  0
 15 16  1  0
 15 21  1  0
 16 17  1  0
 17 18  2  0
 18 19  1  0
 19 20  1  0
M  END
>  <Gold.Gold.Protein.RotatedWaterAtoms>  (140) 


>  <Gold.Id.Protein>  (140) 


>  <Gold.PLP.Chemscore.CHOScore>  (140) 
0.0000

>  <Gold.PLP.Chemscore.Hbond>  (140) 
2.6966

>  <Gold.PLP.Chemscore.Internal.Correction>  (140) 
0.4235

>  <Gold.PLP.Chemscore.Metal>  (140) 
0.0000

>  <Gold.PLP.Fitness>  (140) 
43.7375

>  <Gold.PLP.PLP>  (140) 
-36.5892

>  <Gold.PLP.ligand.clash>  (140) 
0.0000

>  <Gold.PLP.ligand.torsion>  (140) 
0.6825

>  <Gold.PLP.part.buried>  (140) 
-5.9769

>  <Gold.PLP.part.hbond>  (140) 
-3.6169

>  <Gold.PLP.part.metal>  (140) 
0.0000

>  <Gold.PLP.part.nonpolar>  (140) 
-27.8149

>  <Gold.PLP.part.repulsive>  (140) 
0.8289

>  <Gold.Protein.RotatedAtoms>  (140) 


>  <Gold.Protein.RotatedTorsions>  (140) 


>  <Gold.Protein.RotatedWaterAtoms>  (140) 


>  <Gold.Version>  (140) 
5.3.0

>  <PLP.Chemscore.CHOScore>  (140) 


>  <PLP.Chemscore.Hbond>  (140) 


>  <PLP.Chemscore.Internal.Correction>  (140) 


>  <PLP.Chemscore.Metal>  (140) 


>  <PLP.Fitness>  (140) 


>  <PLP.PLP>  (140) 


>  <PLP.ligand.clash>  (140) 


>  <PLP.ligand.torsion>  (140) 


>  <PLP.part.buried>  (140) 


>  <PLP.part.hbond>  (140) 


>  <PLP.part.metal>  (140) 


>  <PLP.part.nonpolar>  (140) 


>  <PLP.part.repulsive>  (140) 


>  <Version>  (140) 


$$$$
3140|Compound_1925|Compounds_3D_F|sdf|562|dock2|1
     RDKit          3D

 21 23  0  0  0  0  0  0  0  0999 V2000
  -10.0387  -20.7939    9.6256 O   0  0  0  0  0  0  0  0  0  0  0  0
  -10.2813  -19.7338   10.4313 C   0  0  0  0  0  0  0  0  0  0  0  0
  -11.5786  -19.4860   10.9212 C   0  0  0  0  0  0  0  0  0  0  0  0
  -12.7663  -20.0996   10.7759 N   0  0  0  0  0  0  0  0  0  0  0  0
  -13.6729  -19.4702   11.4391 N   0  0  0  0  0  0  0  0  0  0  0  0
  -13.0970  -18.3635   12.0811 N   0  0  0  0  0  0  0  0  0  0  0  0
  -11.7693  -18.3695   11.7550 C   0  0  0  0  0  0  0  0  0  0  0  0
  -10.7308  -17.5946   12.0501 N   0  0  0  0  0  0  0  0  0  0  0  0
   -9.5302  -17.8668   11.5672 C   0  0  0  0  0  0  0  0  0  0  0  0
   -9.3031  -18.9109   10.7813 N   0  0  0  0  0  0  0  0  0  0  0  0
   -8.4700  -17.0331   11.8979 N   0  0  0  0  0  0  0  0  0  0  0  0
   -8.5906  -15.6994   11.7491 C   0  0  0  0  0  0  0  0  0  0  0  0
   -9.6283  -15.2259   11.3264 O   0  0  0  0  0  0  0  0  0  0  0  0
   -7.4658  -14.8140   12.1002 C   0  0  0  0  0  0  0  0  0  0  0  0
   -7.4155  -13.4414   12.0732 C   0  0  0  0  0  0  0  0  0  0  0  0
   -6.1890  -13.1025   12.4776 O   0  0  0  0  0  0  0  0  0  0  0  0
   -5.4970  -14.0555   12.7410 N   0  0  0  0  0  0  0  0  0  0  0  0
   -6.1221  -15.1828   12.5719 C   0  0  0  0  0  0  0  0  0  0  0  0
   -5.5821  -16.5705   12.8003 C   0  0  0  0  0  0  0  0  0  0  0  0
   -4.2113  -16.7005   12.1331 C   0  0  0  0  0  0  0  0  0  0  0  0
   -8.5245  -12.5046   11.6687 C   0  0  0  0  0  0  0  0  0  0  0  0
  1  2  1  0
  2  3  2  0
  2 10  1  0
  3  4  1  0
  3  7  1  0
  4  5  2  0
  5  6  1  0
  6  7  1  0
  7  8  2  0
  8  9  1  0
  9 10  2  0
  9 11  1  0
 11 12  1  0
 12 13  2  0
 12 14  1  0
 14 15  2  0
 14 18  1  0
 15 16  1  0
 15 21  1  0
 16 17  1  0
 17 18  2  0
 18 19  1  0
 19 20  1  0
M  END
>  <Gold.Gold.Protein.RotatedWaterAtoms>  (141) 


>  <Gold.Id.Protein>  (141) 


>  <Gold.PLP.Chemscore.CHOScore>  (141) 
0.0000

>  <Gold.PLP.Chemscore.Hbond>  (141) 
1.1316

>  <Gold.PLP.Chemscore.Internal.Correction>  (141) 
0.4235

>  <Gold.PLP.Chemscore.Metal>  (141) 
0.0000

>  <Gold.PLP.Fitness>  (141) 
42.8936

>  <Gold.PLP.PLP>  (141) 
-40.2140

>  <Gold.PLP.ligand.clash>  (141) 
0.0000

>  <Gold.PLP.ligand.torsion>  (141) 
0.5694

>  <Gold.PLP.part.buried>  (141) 
-10.9538

>  <Gold.PLP.part.hbond>  (141) 
-1.2495

>  <Gold.PLP.part.metal>  (141) 
0.0000

>  <Gold.PLP.part.nonpolar>  (141) 
-29.4250

>  <Gold.PLP.part.repulsive>  (141) 
0.9313

>  <Gold.Protein.RotatedAtoms>  (141) 


>  <Gold.Protein.RotatedTorsions>  (141) 


>  <Gold.Protein.RotatedWaterAtoms>  (141) 


>  <Gold.Version>  (141) 
5.3.0

>  <PLP.Chemscore.CHOScore>  (141) 


>  <PLP.Chemscore.Hbond>  (141) 


>  <PLP.Chemscore.Internal.Correction>  (141) 


>  <PLP.Chemscore.Metal>  (141) 


>  <PLP.Fitness>  (141) 


>  <PLP.PLP>  (141) 


>  <PLP.ligand.clash>  (141) 


>  <PLP.ligand.torsion>  (141) 


>  <PLP.part.buried>  (141) 


>  <PLP.part.hbond>  (141) 


>  <PLP.part.metal>  (141) 


>  <PLP.part.nonpolar>  (141) 


>  <PLP.part.repulsive>  (141) 


>  <Version>  (141) 


$$$$
3141|Compound_1925|Compounds_3D_F|sdf|562|dock3|1
     RDKit          3D

 21 23  0  0  0  0  0  0  0  0999 V2000
  -12.8989  -19.1785   12.6222 O   0  0  0  0  0  0  0  0  0  0  0  0
  -11.8026  -18.8480   11.9006 C   0  0  0  0  0  0  0  0  0  0  0  0
  -11.4069  -19.6288   10.7969 C   0  0  0  0  0  0  0  0  0  0  0  0
  -11.8923  -20.7396   10.2150 N   0  0  0  0  0  0  0  0  0  0  0  0
  -11.1558  -21.0711    9.2122 N   0  0  0  0  0  0  0  0  0  0  0  0
  -10.1044  -20.1512    9.0818 N   0  0  0  0  0  0  0  0  0  0  0  0
  -10.2596  -19.2353   10.0849 C   0  0  0  0  0  0  0  0  0  0  0  0
   -9.5948  -18.1518   10.4725 N   0  0  0  0  0  0  0  0  0  0  0  0
  -10.0041  -17.4491   11.5152 C   0  0  0  0  0  0  0  0  0  0  0  0
  -11.0824  -17.7802   12.2130 N   0  0  0  0  0  0  0  0  0  0  0  0
   -9.2825  -16.3233   11.8898 N   0  0  0  0  0  0  0  0  0  0  0  0
   -7.9443  -16.2990   11.7345 C   0  0  0  0  0  0  0  0  0  0  0  0
   -7.3689  -17.2626   11.2653 O   0  0  0  0  0  0  0  0  0  0  0  0
   -7.1779  -15.1043   12.1315 C   0  0  0  0  0  0  0  0  0  0  0  0
   -7.6229  -13.8141   12.2878 C   0  0  0  0  0  0  0  0  0  0  0  0
   -6.5617  -13.0929   12.6570 O   0  0  0  0  0  0  0  0  0  0  0  0
   -5.5516  -13.7475   12.7449 N   0  0  0  0  0  0  0  0  0  0  0  0
   -5.7486  -15.0014   12.4638 C   0  0  0  0  0  0  0  0  0  0  0  0
   -4.7285  -16.1100   12.4677 C   0  0  0  0  0  0  0  0  0  0  0  0
   -4.6177  -16.7059   11.0627 C   0  0  0  0  0  0  0  0  0  0  0  0
   -9.0295  -13.3127   12.0843 C   0  0  0  0  0  0  0  0  0  0  0  0
  1  2  1  0
  2  3  2  0
  2 10  1  0
  3  4  1  0
  3  7  1  0
  4  5  2  0
  5  6  1  0
  6  7  1  0
  7  8  2  0
  8  9  1  0
  9 10  2  0
  9 11  1  0
 11 12  1  0
 12 13  2  0
 12 14  1  0
 14 15  2  0
 14 18  1  0
 15 16  1  0
 15 21  1  0
 16 17  1  0
 17 18  2  0
 18 19  1  0
 19 20  1  0
M  END
>  <Gold.Gold.Protein.RotatedWaterAtoms>  (142) 


>  <Gold.Id.Protein>  (142) 


>  <Gold.PLP.Chemscore.CHOScore>  (142) 
0.0000

>  <Gold.PLP.Chemscore.Hbond>  (142) 
0.8500

>  <Gold.PLP.Chemscore.Internal.Correction>  (142) 
0.4235

>  <Gold.PLP.Chemscore.Metal>  (142) 
0.0000

>  <Gold.PLP.Fitness>  (142) 
41.8422

>  <Gold.PLP.PLP>  (142) 
-39.7449

>  <Gold.PLP.ligand.clash>  (142) 
0.0000

>  <Gold.PLP.ligand.torsion>  (142) 
0.4382

>  <Gold.PLP.part.buried>  (142) 
-8.8302

>  <Gold.PLP.part.hbond>  (142) 
-3.2114

>  <Gold.PLP.part.metal>  (142) 
0.0000

>  <Gold.PLP.part.nonpolar>  (142) 
-28.1929

>  <Gold.PLP.part.repulsive>  (142) 
0.7034

>  <Gold.Protein.RotatedAtoms>  (142) 


>  <Gold.Protein.RotatedTorsions>  (142) 


>  <Gold.Protein.RotatedWaterAtoms>  (142) 


>  <Gold.Version>  (142) 
5.3.0

>  <PLP.Chemscore.CHOScore>  (142) 


>  <PLP.Chemscore.Hbond>  (142) 


>  <PLP.Chemscore.Internal.Correction>  (142) 


>  <PLP.Chemscore.Metal>  (142) 


>  <PLP.Fitness>  (142) 


>  <PLP.PLP>  (142) 


>  <PLP.ligand.clash>  (142) 


>  <PLP.ligand.torsion>  (142) 


>  <PLP.part.buried>  (142) 


>  <PLP.part.hbond>  (142) 


>  <PLP.part.metal>  (142) 


>  <PLP.part.nonpolar>  (142) 


>  <PLP.part.repulsive>  (142) 


>  <Version>  (142) 


$$$$
3142|Compound_1925|Compounds_3D_F|sdf|562|dock4|1
     RDKit          3D

 21 23  0  0  0  0  0  0  0  0999 V2000
  -13.3647  -20.1545   13.4890 O   0  0  0  0  0  0  0  0  0  0  0  0
  -12.9236  -19.5153   12.3804 C   0  0  0  0  0  0  0  0  0  0  0  0
  -13.5603  -19.7084   11.1388 C   0  0  0  0  0  0  0  0  0  0  0  0
  -14.6070  -20.4465   10.7292 N   0  0  0  0  0  0  0  0  0  0  0  0
  -14.7997  -20.2780    9.4673 N   0  0  0  0  0  0  0  0  0  0  0  0
  -13.8456  -19.3797    8.9659 N   0  0  0  0  0  0  0  0  0  0  0  0
  -13.0575  -19.0164   10.0223 C   0  0  0  0  0  0  0  0  0  0  0  0
  -12.0106  -18.2122   10.1744 N   0  0  0  0  0  0  0  0  0  0  0  0
  -11.4452  -18.0615   11.3603 C   0  0  0  0  0  0  0  0  0  0  0  0
  -11.8883  -18.6901   12.4409 N   0  0  0  0  0  0  0  0  0  0  0  0
  -10.3527  -17.2125   11.4789 N   0  0  0  0  0  0  0  0  0  0  0  0
   -9.1032  -17.7032   11.3640 C   0  0  0  0  0  0  0  0  0  0  0  0
   -8.9324  -18.8894   11.1552 O   0  0  0  0  0  0  0  0  0  0  0  0
   -7.9432  -16.8026   11.4895 C   0  0  0  0  0  0  0  0  0  0  0  0
   -6.6105  -17.0951   11.3295 C   0  0  0  0  0  0  0  0  0  0  0  0
   -5.9477  -15.9559   11.5429 O   0  0  0  0  0  0  0  0  0  0  0  0
   -6.6732  -15.0282   11.8067 N   0  0  0  0  0  0  0  0  0  0  0  0
   -7.9282  -15.3673   11.8110 C   0  0  0  0  0  0  0  0  0  0  0  0
   -9.1133  -14.4814   12.0950 C   0  0  0  0  0  0  0  0  0  0  0  0
   -8.6513  -13.0255   12.1864 C   0  0  0  0  0  0  0  0  0  0  0  0
   -6.0151  -18.4351   10.9812 C   0  0  0  0  0  0  0  0  0  0  0  0
  1  2  1  0
  2  3  2  0
  2 10  1  0
  3  4  1  0
  3  7  1  0
  4  5  2  0
  5  6  1  0
  6  7  1  0
  7  8  2  0
  8  9  1  0
  9 10  2  0
  9 11  1  0
 11 12  1  0
 12 13  2  0
 12 14  1  0
 14 15  2  0
 14 18  1  0
 15 16  1  0
 15 21  1  0
 16 17  1  0
 17 18  2  0
 18 19  1  0
 19 20  1  0
M  END
>  <Gold.Gold.Protein.RotatedWaterAtoms>  (143) 


>  <Gold.Id.Protein>  (143) 


>  <Gold.PLP.Chemscore.CHOScore>  (143) 
0.0000

>  <Gold.PLP.Chemscore.Hbond>  (143) 
2.5280

>  <Gold.PLP.Chemscore.Internal.Correction>  (143) 
0.4151

>  <Gold.PLP.Chemscore.Metal>  (143) 
0.0000

>  <Gold.PLP.Fitness>  (143) 
42.2831

>  <Gold.PLP.PLP>  (143) 
-35.9206

>  <Gold.PLP.ligand.clash>  (143) 
0.0000

>  <Gold.PLP.ligand.torsion>  (143) 
0.8183

>  <Gold.PLP.part.buried>  (143) 
-6.5011

>  <Gold.PLP.part.hbond>  (143) 
-3.9206

>  <Gold.PLP.part.metal>  (143) 
0.0000

>  <Gold.PLP.part.nonpolar>  (143) 
-27.1206

>  <Gold.PLP.part.repulsive>  (143) 
0.7450

>  <Gold.Protein.RotatedAtoms>  (143) 


>  <Gold.Protein.RotatedTorsions>  (143) 


>  <Gold.Protein.RotatedWaterAtoms>  (143) 


>  <Gold.Version>  (143) 
5.3.0

>  <PLP.Chemscore.CHOScore>  (143) 


>  <PLP.Chemscore.Hbond>  (143) 


>  <PLP.Chemscore.Internal.Correction>  (143) 


>  <PLP.Chemscore.Metal>  (143) 


>  <PLP.Fitness>  (143) 


>  <PLP.PLP>  (143) 


>  <PLP.ligand.clash>  (143) 


>  <PLP.ligand.torsion>  (143) 


>  <PLP.part.buried>  (143) 


>  <PLP.part.hbond>  (143) 


>  <PLP.part.metal>  (143) 


>  <PLP.part.nonpolar>  (143) 


>  <PLP.part.repulsive>  (143) 


>  <Version>  (143) 


$$$$
3143|Compound_1925|Compounds_3D_F|sdf|562|dock5|1
     RDKit          3D

 21 23  0  0  0  0  0  0  0  0999 V2000
  -10.1689  -21.3116   11.5067 O   0  0  0  0  0  0  0  0  0  0  0  0
  -10.2607  -20.0136   11.1342 C   0  0  0  0  0  0  0  0  0  0  0  0
  -11.4086  -19.5358   10.4721 C   0  0  0  0  0  0  0  0  0  0  0  0
  -12.5607  -20.1016   10.0713 N   0  0  0  0  0  0  0  0  0  0  0  0
  -13.3074  -19.2241    9.4965 N   0  0  0  0  0  0  0  0  0  0  0  0
  -12.6513  -17.9839    9.4933 N   0  0  0  0  0  0  0  0  0  0  0  0
  -11.4469  -18.1771   10.1105 C   0  0  0  0  0  0  0  0  0  0  0  0
  -10.4106  -17.3981   10.4026 N   0  0  0  0  0  0  0  0  0  0  0  0
   -9.3537  -17.8909   11.0261 C   0  0  0  0  0  0  0  0  0  0  0  0
   -9.2761  -19.1640   11.3900 N   0  0  0  0  0  0  0  0  0  0  0  0
   -8.2904  -17.0452   11.3136 N   0  0  0  0  0  0  0  0  0  0  0  0
   -8.5256  -15.7925   11.7505 C   0  0  0  0  0  0  0  0  0  0  0  0
   -9.6690  -15.4031   11.8940 O   0  0  0  0  0  0  0  0  0  0  0  0
   -7.3975  -14.8946   12.0561 C   0  0  0  0  0  0  0  0  0  0  0  0
   -6.1237  -15.2236   12.4517 C   0  0  0  0  0  0  0  0  0  0  0  0
   -5.4681  -14.0705   12.6041 O   0  0  0  0  0  0  0  0  0  0  0  0
   -6.1488  -13.1034   12.3636 N   0  0  0  0  0  0  0  0  0  0  0  0
   -7.3568  -13.4250   12.0066 C   0  0  0  0  0  0  0  0  0  0  0  0
   -8.4783  -12.4912   11.6323 C   0  0  0  0  0  0  0  0  0  0  0  0
   -7.9588  -11.0522   11.6130 C   0  0  0  0  0  0  0  0  0  0  0  0
   -5.5752  -16.6103   12.6692 C   0  0  0  0  0  0  0  0  0  0  0  0
  1  2  1  0
  2  3  2  0
  2 10  1  0
  3  4  1  0
  3  7  1  0
  4  5  2  0
  5  6  1  0
  6  7  1  0
  7  8  2  0
  8  9  1  0
  9 10  2  0
  9 11  1  0
 11 12  1  0
 12 13  2  0
 12 14  1  0
 14 15  2  0
 14 18  1  0
 15 16  1  0
 15 21  1  0
 16 17  1  0
 17 18  2  0
 18 19  1  0
 19 20  1  0
M  END
>  <Gold.Gold.Protein.RotatedWaterAtoms>  (144) 


>  <Gold.Id.Protein>  (144) 


>  <Gold.PLP.Chemscore.CHOScore>  (144) 
0.0000

>  <Gold.PLP.Chemscore.Hbond>  (144) 
0.4480

>  <Gold.PLP.Chemscore.Internal.Correction>  (144) 
0.4151

>  <Gold.PLP.Chemscore.Metal>  (144) 
0.0000

>  <Gold.PLP.Fitness>  (144) 
43.2405

>  <Gold.PLP.PLP>  (144) 
-42.7979

>  <Gold.PLP.ligand.clash>  (144) 
0.0000

>  <Gold.PLP.ligand.torsion>  (144) 
0.6583

>  <Gold.PLP.part.buried>  (144) 
-10.5885

>  <Gold.PLP.part.hbond>  (144) 
-2.0211

>  <Gold.PLP.part.metal>  (144) 
0.0000

>  <Gold.PLP.part.nonpolar>  (144) 
-30.5967

>  <Gold.PLP.part.repulsive>  (144) 
0.7774

>  <Gold.Protein.RotatedAtoms>  (144) 


>  <Gold.Protein.RotatedTorsions>  (144) 


>  <Gold.Protein.RotatedWaterAtoms>  (144) 


>  <Gold.Version>  (144) 
5.3.0

>  <PLP.Chemscore.CHOScore>  (144) 


>  <PLP.Chemscore.Hbond>  (144) 


>  <PLP.Chemscore.Internal.Correction>  (144) 


>  <PLP.Chemscore.Metal>  (144) 


>  <PLP.Fitness>  (144) 


>  <PLP.PLP>  (144) 


>  <PLP.ligand.clash>  (144) 


>  <PLP.ligand.torsion>  (144) 


>  <PLP.part.buried>  (144) 


>  <PLP.part.hbond>  (144) 


>  <PLP.part.metal>  (144) 


>  <PLP.part.nonpolar>  (144) 


>  <PLP.part.repulsive>  (144) 


>  <Version>  (144) 


$$$$
3144|Compound_1925|Compounds_3D_F|sdf|562|dock6|1
     RDKit          3D

 21 23  0  0  0  0  0  0  0  0999 V2000
  -10.6447  -19.8345    8.9111 O   0  0  0  0  0  0  0  0  0  0  0  0
  -10.9664  -19.1244   10.0176 C   0  0  0  0  0  0  0  0  0  0  0  0
  -12.1296  -19.4271   10.7523 C   0  0  0  0  0  0  0  0  0  0  0  0
  -13.1085  -20.3394   10.6198 N   0  0  0  0  0  0  0  0  0  0  0  0
  -13.9684  -20.2058   11.5689 N   0  0  0  0  0  0  0  0  0  0  0  0
  -13.5765  -19.1520   12.4081 N   0  0  0  0  0  0  0  0  0  0  0  0
  -12.4113  -18.6551   11.8937 C   0  0  0  0  0  0  0  0  0  0  0  0
  -11.5798  -17.6771   12.2374 N   0  0  0  0  0  0  0  0  0  0  0  0
  -10.4988  -17.4295   11.5171 C   0  0  0  0  0  0  0  0  0  0  0  0
  -10.1912  -18.1344   10.4365 N   0  0  0  0  0  0  0  0  0  0  0  0
   -9.6543  -16.3988   11.9082 N   0  0  0  0  0  0  0  0  0  0  0  0
   -8.3276  -16.4977   11.6949 C   0  0  0  0  0  0  0  0  0  0  0  0
   -7.8701  -17.4891   11.1588 O   0  0  0  0  0  0  0  0  0  0  0  0
   -7.4310  -15.4039   12.1095 C   0  0  0  0  0  0  0  0  0  0  0  0
   -7.7115  -14.0642   12.2270 C   0  0  0  0  0  0  0  0  0  0  0  0
   -6.5829  -13.4784   12.6340 O   0  0  0  0  0  0  0  0  0  0  0  0
   -5.6709  -14.2557   12.7773 N   0  0  0  0  0  0  0  0  0  0  0  0
   -6.0162  -15.4792   12.5054 C   0  0  0  0  0  0  0  0  0  0  0  0
   -5.1494  -16.7096   12.5716 C   0  0  0  0  0  0  0  0  0  0  0  0
   -3.9312  -16.5246   11.6643 C   0  0  0  0  0  0  0  0  0  0  0  0
   -9.0312  -13.3902   11.9522 C   0  0  0  0  0  0  0  0  0  0  0  0
  1  2  1  0
  2  3  2  0
  2 10  1  0
  3  4  1  0
  3  7  1  0
  4  5  2  0
  5  6  1  0
  6  7  1  0
  7  8  2  0
  8  9  1  0
  9 10  2  0
  9 11  1  0
 11 12  1  0
 12 13  2  0
 12 14  1  0
 14 15  2  0
 14 18  1  0
 15 16  1  0
 15 21  1  0
 16 17  1  0
 17 18  2  0
 18 19  1  0
 19 20  1  0
M  END
>  <Gold.Gold.Protein.RotatedWaterAtoms>  (145) 


>  <Gold.Id.Protein>  (145) 


>  <Gold.PLP.Chemscore.CHOScore>  (145) 
0.0000

>  <Gold.PLP.Chemscore.Hbond>  (145) 
1.0957

>  <Gold.PLP.Chemscore.Internal.Correction>  (145) 
0.4151

>  <Gold.PLP.Chemscore.Metal>  (145) 
0.0000

>  <Gold.PLP.Fitness>  (145) 
43.1364

>  <Gold.PLP.PLP>  (145) 
-40.5538

>  <Gold.PLP.ligand.clash>  (145) 
0.0000

>  <Gold.PLP.ligand.torsion>  (145) 
0.5598

>  <Gold.PLP.part.buried>  (145) 
-5.7885

>  <Gold.PLP.part.hbond>  (145) 
-5.0000

>  <Gold.PLP.part.metal>  (145) 
0.0000

>  <Gold.PLP.part.nonpolar>  (145) 
-29.8678

>  <Gold.PLP.part.repulsive>  (145) 
1.1906

>  <Gold.Protein.RotatedAtoms>  (145) 


>  <Gold.Protein.RotatedTorsions>  (145) 


>  <Gold.Protein.RotatedWaterAtoms>  (145) 


>  <Gold.Version>  (145) 
5.3.0

>  <PLP.Chemscore.CHOScore>  (145) 


>  <PLP.Chemscore.Hbond>  (145) 


>  <PLP.Chemscore.Internal.Correction>  (145) 


>  <PLP.Chemscore.Metal>  (145) 


>  <PLP.Fitness>  (145) 


>  <PLP.PLP>  (145) 


>  <PLP.ligand.clash>  (145) 


>  <PLP.ligand.torsion>  (145) 


>  <PLP.part.buried>  (145) 


>  <PLP.part.hbond>  (145) 


>  <PLP.part.metal>  (145) 


>  <PLP.part.nonpolar>  (145) 


>  <PLP.part.repulsive>  (145) 


>  <Version>  (145) 


$$$$
3145|Compound_1925|Compounds_3D_F|sdf|562|dock7|1
     RDKit          3D

 21 23  0  0  0  0  0  0  0  0999 V2000
  -12.0161  -17.9551   12.3014 O   0  0  0  0  0  0  0  0  0  0  0  0
  -10.8267  -18.0630   11.6645 C   0  0  0  0  0  0  0  0  0  0  0  0
  -10.5846  -19.1241   10.7702 C   0  0  0  0  0  0  0  0  0  0  0  0
  -11.3117  -20.1713   10.3425 N   0  0  0  0  0  0  0  0  0  0  0  0
  -10.6276  -20.8723    9.5067 N   0  0  0  0  0  0  0  0  0  0  0  0
   -9.3616  -20.2917    9.3377 N   0  0  0  0  0  0  0  0  0  0  0  0
   -9.3299  -19.1832   10.1374 C   0  0  0  0  0  0  0  0  0  0  0  0
   -8.4250  -18.2463   10.4009 N   0  0  0  0  0  0  0  0  0  0  0  0
   -8.6974  -17.2679   11.2478 C   0  0  0  0  0  0  0  0  0  0  0  0
   -9.8681  -17.1698   11.8635 N   0  0  0  0  0  0  0  0  0  0  0  0
   -7.7257  -16.3077   11.4975 N   0  0  0  0  0  0  0  0  0  0  0  0
   -8.0873  -15.0369   11.7617 C   0  0  0  0  0  0  0  0  0  0  0  0
   -9.2645  -14.7312   11.7825 O   0  0  0  0  0  0  0  0  0  0  0  0
   -7.0565  -14.0174   12.0271 C   0  0  0  0  0  0  0  0  0  0  0  0
   -5.7351  -14.2006   12.3554 C   0  0  0  0  0  0  0  0  0  0  0  0
   -5.2102  -12.9809   12.4948 O   0  0  0  0  0  0  0  0  0  0  0  0
   -6.0090  -12.0968   12.3032 N   0  0  0  0  0  0  0  0  0  0  0  0
   -7.1881  -12.5525   11.9997 C   0  0  0  0  0  0  0  0  0  0  0  0
   -8.4271  -11.7513   11.6954 C   0  0  0  0  0  0  0  0  0  0  0  0
   -8.0572  -10.2730   11.5571 C   0  0  0  0  0  0  0  0  0  0  0  0
   -5.0201  -15.5165   12.5235 C   0  0  0  0  0  0  0  0  0  0  0  0
  1  2  1  0
  2  3  2  0
  2 10  1  0
  3  4  1  0
  3  7  1  0
  4  5  2  0
  5  6  1  0
  6  7  1  0
  7  8  2  0
  8  9  1  0
  9 10  2  0
  9 11  1  0
 11 12  1  0
 12 13  2  0
 12 14  1  0
 14 15  2  0
 14 18  1  0
 15 16  1  0
 15 21  1  0
 16 17  1  0
 17 18  2  0
 18 19  1  0
 19 20  1  0
M  END
>  <Gold.Gold.Protein.RotatedWaterAtoms>  (146) 


>  <Gold.Id.Protein>  (146) 


>  <Gold.PLP.Chemscore.CHOScore>  (146) 
0.0000

>  <Gold.PLP.Chemscore.Hbond>  (146) 
1.5760

>  <Gold.PLP.Chemscore.Internal.Correction>  (146) 
0.4151

>  <Gold.PLP.Chemscore.Metal>  (146) 
0.0000

>  <Gold.PLP.Fitness>  (146) 
50.0203

>  <Gold.PLP.PLP>  (146) 
-45.7357

>  <Gold.PLP.ligand.clash>  (146) 
0.0068

>  <Gold.PLP.ligand.torsion>  (146) 
0.4258

>  <Gold.PLP.part.buried>  (146) 
-10.4151

>  <Gold.PLP.part.hbond>  (146) 
-3.8819

>  <Gold.PLP.part.metal>  (146) 
0.0000

>  <Gold.PLP.part.nonpolar>  (146) 
-33.6900

>  <Gold.PLP.part.repulsive>  (146) 
0.9046

>  <Gold.Protein.RotatedAtoms>  (146) 


>  <Gold.Protein.RotatedTorsions>  (146) 


>  <Gold.Protein.RotatedWaterAtoms>  (146) 


>  <Gold.Version>  (146) 
5.3.0

>  <PLP.Chemscore.CHOScore>  (146) 


>  <PLP.Chemscore.Hbond>  (146) 


>  <PLP.Chemscore.Internal.Correction>  (146) 


>  <PLP.Chemscore.Metal>  (146) 


>  <PLP.Fitness>  (146) 


>  <PLP.PLP>  (146) 


>  <PLP.ligand.clash>  (146) 


>  <PLP.ligand.torsion>  (146) 


>  <PLP.part.buried>  (146) 


>  <PLP.part.hbond>  (146) 


>  <PLP.part.metal>  (146) 


>  <PLP.part.nonpolar>  (146) 


>  <PLP.part.repulsive>  (146) 


>  <Version>  (146) 


$$$$
3146|Compound_1925|Compounds_3D_F|sdf|562|dock8|1
     RDKit          3D

 21 23  0  0  0  0  0  0  0  0999 V2000
  -12.0692  -17.8997   12.2596 O   0  0  0  0  0  0  0  0  0  0  0  0
  -10.8267  -18.0023   11.7328 C   0  0  0  0  0  0  0  0  0  0  0  0
  -10.4952  -19.0714   10.8774 C   0  0  0  0  0  0  0  0  0  0  0  0
  -11.1710  -20.1313   10.4000 N   0  0  0  0  0  0  0  0  0  0  0  0
  -10.4082  -20.8348    9.6376 N   0  0  0  0  0  0  0  0  0  0  0  0
   -9.1378  -20.2426    9.5749 N   0  0  0  0  0  0  0  0  0  0  0  0
   -9.1885  -19.1244   10.3600 C   0  0  0  0  0  0  0  0  0  0  0  0
   -8.3199  -18.1747   10.6912 N   0  0  0  0  0  0  0  0  0  0  0  0
   -8.6764  -17.1892   11.4977 C   0  0  0  0  0  0  0  0  0  0  0  0
   -9.8983  -17.0965   12.0052 N   0  0  0  0  0  0  0  0  0  0  0  0
   -7.7403  -16.2157   11.8209 N   0  0  0  0  0  0  0  0  0  0  0  0
   -7.9929  -14.9212   11.5457 C   0  0  0  0  0  0  0  0  0  0  0  0
   -9.0411  -14.6054   11.0153 O   0  0  0  0  0  0  0  0  0  0  0  0
   -7.0000  -13.8874   11.8887 C   0  0  0  0  0  0  0  0  0  0  0  0
   -5.6861  -14.0500   12.2555 C   0  0  0  0  0  0  0  0  0  0  0  0
   -5.1996  -12.8241   12.4631 O   0  0  0  0  0  0  0  0  0  0  0  0
   -6.0153  -11.9536   12.2798 N   0  0  0  0  0  0  0  0  0  0  0  0
   -7.1705  -12.4265   11.9166 C   0  0  0  0  0  0  0  0  0  0  0  0
   -8.4197  -11.6456   11.6018 C   0  0  0  0  0  0  0  0  0  0  0  0
   -8.0992  -10.1494   11.6013 C   0  0  0  0  0  0  0  0  0  0  0  0
   -4.9416  -15.3529   12.3947 C   0  0  0  0  0  0  0  0  0  0  0  0
  1  2  1  0
  2  3  2  0
  2 10  1  0
  3  4  1  0
  3  7  1  0
  4  5  2  0
  5  6  1  0
  6  7  1  0
  7  8  2  0
  8  9  1  0
  9 10  2  0
  9 11  1  0
 11 12  1  0
 12 13  2  0
 12 14  1  0
 14 15  2  0
 14 18  1  0
 15 16  1  0
 15 21  1  0
 16 17  1  0
 17 18  2  0
 18 19  1  0
 19 20  1  0
M  END
>  <Gold.Gold.Protein.RotatedWaterAtoms>  (147) 


>  <Gold.Id.Protein>  (147) 


>  <Gold.PLP.Chemscore.CHOScore>  (147) 
0.0000

>  <Gold.PLP.Chemscore.Hbond>  (147) 
0.6598

>  <Gold.PLP.Chemscore.Internal.Correction>  (147) 
0.4151

>  <Gold.PLP.Chemscore.Metal>  (147) 
0.0000

>  <Gold.PLP.Fitness>  (147) 
47.0773

>  <Gold.PLP.PLP>  (147) 
-46.5184

>  <Gold.PLP.ligand.clash>  (147) 
0.5200

>  <Gold.PLP.ligand.torsion>  (147) 
0.6577

>  <Gold.PLP.part.buried>  (147) 
-9.6206

>  <Gold.PLP.part.hbond>  (147) 
-3.9957

>  <Gold.PLP.part.metal>  (147) 
0.0000

>  <Gold.PLP.part.nonpolar>  (147) 
-34.9374

>  <Gold.PLP.part.repulsive>  (147) 
0.9300

>  <Gold.Protein.RotatedAtoms>  (147) 


>  <Gold.Protein.RotatedTorsions>  (147) 


>  <Gold.Protein.RotatedWaterAtoms>  (147) 


>  <Gold.Version>  (147) 
5.3.0

>  <PLP.Chemscore.CHOScore>  (147) 


>  <PLP.Chemscore.Hbond>  (147) 


>  <PLP.Chemscore.Internal.Correction>  (147) 


>  <PLP.Chemscore.Metal>  (147) 


>  <PLP.Fitness>  (147) 


>  <PLP.PLP>  (147) 


>  <PLP.ligand.clash>  (147) 


>  <PLP.ligand.torsion>  (147) 


>  <PLP.part.buried>  (147) 


>  <PLP.part.hbond>  (147) 


>  <PLP.part.metal>  (147) 


>  <PLP.part.nonpolar>  (147) 


>  <PLP.part.repulsive>  (147) 


>  <Version>  (147) 


$$$$
3147|Compound_1925|Compounds_3D_F|sdf|562|dock9|1
     RDKit          3D

 21 23  0  0  0  0  0  0  0  0999 V2000
  -10.5144  -20.0456    8.9567 O   0  0  0  0  0  0  0  0  0  0  0  0
  -10.8056  -19.2757   10.0311 C   0  0  0  0  0  0  0  0  0  0  0  0
  -11.9694  -19.5110   10.7891 C   0  0  0  0  0  0  0  0  0  0  0  0
  -12.9742  -20.4009   10.7082 N   0  0  0  0  0  0  0  0  0  0  0  0
  -13.8208  -20.1989   11.6572 N   0  0  0  0  0  0  0  0  0  0  0  0
  -13.3918  -19.1181   12.4423 N   0  0  0  0  0  0  0  0  0  0  0  0
  -12.2186  -18.6787   11.8951 C   0  0  0  0  0  0  0  0  0  0  0  0
  -11.3572  -17.7092   12.1852 N   0  0  0  0  0  0  0  0  0  0  0  0
  -10.2769  -17.5260   11.4449 C   0  0  0  0  0  0  0  0  0  0  0  0
   -9.9994  -18.2891   10.3962 N   0  0  0  0  0  0  0  0  0  0  0  0
   -9.4007  -16.5019   11.7797 N   0  0  0  0  0  0  0  0  0  0  0  0
   -8.0709  -16.6930   11.6765 C   0  0  0  0  0  0  0  0  0  0  0  0
   -7.6383  -17.7619   11.2891 O   0  0  0  0  0  0  0  0  0  0  0  0
   -7.1405  -15.6065   12.0314 C   0  0  0  0  0  0  0  0  0  0  0  0
   -5.8244  -15.6969   12.4150 C   0  0  0  0  0  0  0  0  0  0  0  0
   -5.4085  -14.4462   12.6279 O   0  0  0  0  0  0  0  0  0  0  0  0
   -6.2681  -13.6217   12.4337 N   0  0  0  0  0  0  0  0  0  0  0  0
   -7.3910  -14.1572   12.0563 C   0  0  0  0  0  0  0  0  0  0  0  0
   -8.6771  -13.4457   11.7252 C   0  0  0  0  0  0  0  0  0  0  0  0
   -8.4159  -11.9416   11.6225 C   0  0  0  0  0  0  0  0  0  0  0  0
   -5.0115  -16.9571   12.5644 C   0  0  0  0  0  0  0  0  0  0  0  0
  1  2  1  0
  2  3  2  0
  2 10  1  0
  3  4  1  0
  3  7  1  0
  4  5  2  0
  5  6  1  0
  6  7  1  0
  7  8  2  0
  8  9  1  0
  9 10  2  0
  9 11  1  0
 11 12  1  0
 12 13  2  0
 12 14  1  0
 14 15  2  0
 14 18  1  0
 15 16  1  0
 15 21  1  0
 16 17  1  0
 17 18  2  0
 18 19  1  0
 19 20  1  0
M  END
>  <Gold.Gold.Protein.RotatedWaterAtoms>  (148) 


>  <Gold.Id.Protein>  (148) 


>  <Gold.PLP.Chemscore.CHOScore>  (148) 
0.0000

>  <Gold.PLP.Chemscore.Hbond>  (148) 
0.9507

>  <Gold.PLP.Chemscore.Internal.Correction>  (148) 
0.4151

>  <Gold.PLP.Chemscore.Metal>  (148) 
0.0000

>  <Gold.PLP.Fitness>  (148) 
42.5692

>  <Gold.PLP.PLP>  (148) 
-40.5974

>  <Gold.PLP.ligand.clash>  (148) 
0.0000

>  <Gold.PLP.ligand.torsion>  (148) 
0.6477

>  <Gold.PLP.part.buried>  (148) 
-8.4503

>  <Gold.PLP.part.hbond>  (148) 
-4.4902

>  <Gold.PLP.part.metal>  (148) 
0.0000

>  <Gold.PLP.part.nonpolar>  (148) 
-28.8776

>  <Gold.PLP.part.repulsive>  (148) 
0.8130

>  <Gold.Protein.RotatedAtoms>  (148) 


>  <Gold.Protein.RotatedTorsions>  (148) 


>  <Gold.Protein.RotatedWaterAtoms>  (148) 


>  <Gold.Version>  (148) 
5.3.0

>  <PLP.Chemscore.CHOScore>  (148) 


>  <PLP.Chemscore.Hbond>  (148) 


>  <PLP.Chemscore.Internal.Correction>  (148) 


>  <PLP.Chemscore.Metal>  (148) 


>  <PLP.Fitness>  (148) 


>  <PLP.PLP>  (148) 


>  <PLP.ligand.clash>  (148) 


>  <PLP.ligand.torsion>  (148) 


>  <PLP.part.buried>  (148) 


>  <PLP.part.hbond>  (148) 


>  <PLP.part.metal>  (148) 


>  <PLP.part.nonpolar>  (148) 


>  <PLP.part.repulsive>  (148) 


>  <Version>  (148) 


$$$$
3148|Compound_1927|Compounds_3D_F|sdf|563|dock1|1
     RDKit          3D

 16 17  0  0  0  0  0  0  0  0999 V2000
   -8.5474  -16.6257   11.8715 N   0  0  0  0  0  0  0  0  0  0  0  0
   -8.6629  -15.2856   11.9609 C   0  0  0  0  0  0  0  0  0  0  0  0
   -9.7634  -14.7730   12.0125 O   0  0  0  0  0  0  0  0  0  0  0  0
   -7.4539  -14.4432   11.9963 C   0  0  0  0  0  0  0  0  0  0  0  0
   -7.3448  -13.0926   11.7702 C   0  0  0  0  0  0  0  0  0  0  0  0
   -6.0517  -12.7914   11.9157 O   0  0  0  0  0  0  0  0  0  0  0  0
   -5.3706  -13.7472   12.1933 N   0  0  0  0  0  0  0  0  0  0  0  0
   -6.0682  -14.8402   12.2883 C   0  0  0  0  0  0  0  0  0  0  0  0
   -5.5627  -16.2219   12.6166 C   0  0  0  0  0  0  0  0  0  0  0  0
   -4.4080  -16.5781   11.6786 C   0  0  0  0  0  0  0  0  0  0  0  0
   -8.4606  -12.1408   11.4258 C   0  0  0  0  0  0  0  0  0  0  0  0
   -9.6850  -17.4191   11.8332 C   0  0  0  0  0  0  0  0  0  0  0  0
  -10.8955  -17.0667   12.2018 N   0  0  0  0  0  0  0  0  0  0  0  0
  -11.7177  -18.0394   12.0382 N   0  0  0  0  0  0  0  0  0  0  0  0
  -11.1045  -19.0682   11.5616 N   0  0  0  0  0  0  0  0  0  0  0  0
   -9.7568  -18.7002   11.4047 N   0  0  0  0  0  0  0  0  0  0  0  0
  1  2  1  0
  1 12  1  0
  2  3  2  0
  2  4  1  0
  4  5  2  0
  4  8  1  0
  5  6  1  0
  5 11  1  0
  6  7  1  0
  7  8  2  0
  8  9  1  0
  9 10  1  0
 12 13  2  0
 12 16  1  0
 13 14  1  0
 14 15  2  0
 15 16  1  0
M  END
>  <Gold.Gold.Protein.RotatedWaterAtoms>  (149) 


>  <Gold.Id.Protein>  (149) 


>  <Gold.PLP.Chemscore.CHOScore>  (149) 
0.0000

>  <Gold.PLP.Chemscore.Hbond>  (149) 
1.0000

>  <Gold.PLP.Chemscore.Internal.Correction>  (149) 
0.0030

>  <Gold.PLP.Chemscore.Metal>  (149) 
0.0000

>  <Gold.PLP.Fitness>  (149) 
39.2603

>  <Gold.PLP.PLP>  (149) 
-36.7623

>  <Gold.PLP.ligand.clash>  (149) 
0.0000

>  <Gold.PLP.ligand.torsion>  (149) 
0.2525

>  <Gold.PLP.part.buried>  (149) 
-9.0129

>  <Gold.PLP.part.hbond>  (149) 
-3.8873

>  <Gold.PLP.part.metal>  (149) 
0.0000

>  <Gold.PLP.part.nonpolar>  (149) 
-24.2667

>  <Gold.PLP.part.repulsive>  (149) 
0.7900

>  <Gold.Protein.RotatedAtoms>  (149) 


>  <Gold.Protein.RotatedTorsions>  (149) 


>  <Gold.Protein.RotatedWaterAtoms>  (149) 


>  <Gold.Version>  (149) 
5.3.0

>  <PLP.Chemscore.CHOScore>  (149) 


>  <PLP.Chemscore.Hbond>  (149) 


>  <PLP.Chemscore.Internal.Correction>  (149) 


>  <PLP.Chemscore.Metal>  (149) 


>  <PLP.Fitness>  (149) 


>  <PLP.PLP>  (149) 


>  <PLP.ligand.clash>  (149) 


>  <PLP.ligand.torsion>  (149) 


>  <PLP.part.buried>  (149) 


>  <PLP.part.hbond>  (149) 


>  <PLP.part.metal>  (149) 


>  <PLP.part.nonpolar>  (149) 


>  <PLP.part.repulsive>  (149) 


>  <Version>  (149) 


$$$$
3149|Compound_1927|Compounds_3D_F|sdf|563|dock2|1
     RDKit          3D

 16 17  0  0  0  0  0  0  0  0999 V2000
   -8.7311  -17.0093   11.6650 N   0  0  0  0  0  0  0  0  0  0  0  0
   -8.7808  -15.6960   11.9646 C   0  0  0  0  0  0  0  0  0  0  0  0
   -9.8525  -15.1579   12.1606 O   0  0  0  0  0  0  0  0  0  0  0  0
   -7.5348  -14.9137   12.0545 C   0  0  0  0  0  0  0  0  0  0  0  0
   -7.3765  -13.5495   12.0251 C   0  0  0  0  0  0  0  0  0  0  0  0
   -6.0653  -13.3216   12.1386 O   0  0  0  0  0  0  0  0  0  0  0  0
   -5.4148  -14.3328   12.2316 N   0  0  0  0  0  0  0  0  0  0  0  0
   -6.1551  -15.4010   12.2038 C   0  0  0  0  0  0  0  0  0  0  0  0
   -5.6964  -16.8342   12.2940 C   0  0  0  0  0  0  0  0  0  0  0  0
   -4.1732  -16.8738   12.4294 C   0  0  0  0  0  0  0  0  0  0  0  0
   -8.4645  -12.5161   11.8907 C   0  0  0  0  0  0  0  0  0  0  0  0
   -9.9039  -17.7453   11.5753 C   0  0  0  0  0  0  0  0  0  0  0  0
  -11.0322  -17.4955   12.1998 N   0  0  0  0  0  0  0  0  0  0  0  0
  -11.9196  -18.3724   11.8955 N   0  0  0  0  0  0  0  0  0  0  0  0
  -11.4329  -19.2331   11.0685 N   0  0  0  0  0  0  0  0  0  0  0  0
  -10.1017  -18.8530   10.8243 N   0  0  0  0  0  0  0  0  0  0  0  0
  1  2  1  0
  1 12  1  0
  2  3  2  0
  2  4  1  0
  4  5  2  0
  4  8  1  0
  5  6  1  0
  5 11  1  0
  6  7  1  0
  7  8  2  0
  8  9  1  0
  9 10  1  0
 12 13  2  0
 12 16  1  0
 13 14  1  0
 14 15  2  0
 15 16  1  0
M  END
>  <Gold.Gold.Protein.RotatedWaterAtoms>  (150) 


>  <Gold.Id.Protein>  (150) 


>  <Gold.PLP.Chemscore.CHOScore>  (150) 
0.0000

>  <Gold.PLP.Chemscore.Hbond>  (150) 
1.4631

>  <Gold.PLP.Chemscore.Internal.Correction>  (150) 
0.0028

>  <Gold.PLP.Chemscore.Metal>  (150) 
0.0000

>  <Gold.PLP.Fitness>  (150) 
39.7132

>  <Gold.PLP.PLP>  (150) 
-35.9006

>  <Gold.PLP.ligand.clash>  (150) 
0.0000

>  <Gold.PLP.ligand.torsion>  (150) 
0.2897

>  <Gold.PLP.part.buried>  (150) 
-9.1252

>  <Gold.PLP.part.hbond>  (150) 
-2.4025

>  <Gold.PLP.part.metal>  (150) 
0.0000

>  <Gold.PLP.part.nonpolar>  (150) 
-24.2125

>  <Gold.PLP.part.repulsive>  (150) 
0.6834

>  <Gold.Protein.RotatedAtoms>  (150) 


>  <Gold.Protein.RotatedTorsions>  (150) 


>  <Gold.Protein.RotatedWaterAtoms>  (150) 


>  <Gold.Version>  (150) 
5.3.0

>  <PLP.Chemscore.CHOScore>  (150) 


>  <PLP.Chemscore.Hbond>  (150) 


>  <PLP.Chemscore.Internal.Correction>  (150) 


>  <PLP.Chemscore.Metal>  (150) 


>  <PLP.Fitness>  (150) 


>  <PLP.PLP>  (150) 


>  <PLP.ligand.clash>  (150) 


>  <PLP.ligand.torsion>  (150) 


>  <PLP.part.buried>  (150) 


>  <PLP.part.hbond>  (150) 


>  <PLP.part.metal>  (150) 


>  <PLP.part.nonpolar>  (150) 


>  <PLP.part.repulsive>  (150) 


>  <Version>  (150) 


$$$$
3150|Compound_1927|Compounds_3D_F|sdf|563|dock3|1
     RDKit          3D

 16 17  0  0  0  0  0  0  0  0999 V2000
   -8.6615  -17.0376   11.6058 N   0  0  0  0  0  0  0  0  0  0  0  0
   -8.6923  -15.7304   11.9338 C   0  0  0  0  0  0  0  0  0  0  0  0
   -9.7565  -15.1796   12.1350 O   0  0  0  0  0  0  0  0  0  0  0  0
   -7.4347  -14.9703   12.0481 C   0  0  0  0  0  0  0  0  0  0  0  0
   -7.2568  -13.6083   12.0722 C   0  0  0  0  0  0  0  0  0  0  0  0
   -5.9419  -13.4039   12.1878 O   0  0  0  0  0  0  0  0  0  0  0  0
   -5.3056  -14.4272   12.2371 N   0  0  0  0  0  0  0  0  0  0  0  0
   -6.0615  -15.4828   12.1707 C   0  0  0  0  0  0  0  0  0  0  0  0
   -5.6232  -16.9249   12.2013 C   0  0  0  0  0  0  0  0  0  0  0  0
   -4.0999  -16.9916   12.3242 C   0  0  0  0  0  0  0  0  0  0  0  0
   -8.3302  -12.5549   11.9847 C   0  0  0  0  0  0  0  0  0  0  0  0
   -9.8452  -17.7526   11.4931 C   0  0  0  0  0  0  0  0  0  0  0  0
  -10.9374  -17.5711   12.1999 N   0  0  0  0  0  0  0  0  0  0  0  0
  -11.8486  -18.4027   11.8433 N   0  0  0  0  0  0  0  0  0  0  0  0
  -11.4140  -19.1647   10.8988 N   0  0  0  0  0  0  0  0  0  0  0  0
  -10.0929  -18.7654   10.6312 N   0  0  0  0  0  0  0  0  0  0  0  0
  1  2  1  0
  1 12  1  0
  2  3  2  0
  2  4  1  0
  4  5  2  0
  4  8  1  0
  5  6  1  0
  5 11  1  0
  6  7  1  0
  7  8  2  0
  8  9  1  0
  9 10  1  0
 12 13  2  0
 12 16  1  0
 13 14  1  0
 14 15  2  0
 15 16  1  0
M  END
>  <Gold.Gold.Protein.RotatedWaterAtoms>  (151) 


>  <Gold.Id.Protein>  (151) 


>  <Gold.PLP.Chemscore.CHOScore>  (151) 
0.0000

>  <Gold.PLP.Chemscore.Hbond>  (151) 
1.3300

>  <Gold.PLP.Chemscore.Internal.Correction>  (151) 
0.0028

>  <Gold.PLP.Chemscore.Metal>  (151) 
0.0000

>  <Gold.PLP.Fitness>  (151) 
39.2405

>  <Gold.PLP.PLP>  (151) 
-35.9366

>  <Gold.PLP.ligand.clash>  (151) 
0.0000

>  <Gold.PLP.ligand.torsion>  (151) 
0.3444

>  <Gold.PLP.part.buried>  (151) 
-9.6271

>  <Gold.PLP.part.hbond>  (151) 
-2.5823

>  <Gold.PLP.part.metal>  (151) 
0.0000

>  <Gold.PLP.part.nonpolar>  (151) 
-24.1420

>  <Gold.PLP.part.repulsive>  (151) 
0.6880

>  <Gold.Protein.RotatedAtoms>  (151) 


>  <Gold.Protein.RotatedTorsions>  (151) 


>  <Gold.Protein.RotatedWaterAtoms>  (151) 


>  <Gold.Version>  (151) 
5.3.0

>  <PLP.Chemscore.CHOScore>  (151) 


>  <PLP.Chemscore.Hbond>  (151) 


>  <PLP.Chemscore.Internal.Correction>  (151) 


>  <PLP.Chemscore.Metal>  (151) 


>  <PLP.Fitness>  (151) 


>  <PLP.PLP>  (151) 


>  <PLP.ligand.clash>  (151) 


>  <PLP.ligand.torsion>  (151) 


>  <PLP.part.buried>  (151) 


>  <PLP.part.hbond>  (151) 


>  <PLP.part.metal>  (151) 


>  <PLP.part.nonpolar>  (151) 


>  <PLP.part.repulsive>  (151) 


>  <Version>  (151) 


$$$$
3151|Compound_1936|Compounds_3D_F|sdf|564|dock1|1
     RDKit          3D

 19 20  0  0  0  0  0  0  0  0999 V2000
   -8.4054  -15.8628   12.0100 N   0  0  0  0  0  0  0  0  0  0  0  0
   -8.5570  -14.5270   12.1082 C   0  0  0  0  0  0  0  0  0  0  0  0
   -9.6687  -14.0486   12.2277 O   0  0  0  0  0  0  0  0  0  0  0  0
   -7.3751  -13.6471   12.0708 C   0  0  0  0  0  0  0  0  0  0  0  0
   -6.0536  -13.9811   12.2409 C   0  0  0  0  0  0  0  0  0  0  0  0
   -5.3616  -12.8456   12.1203 O   0  0  0  0  0  0  0  0  0  0  0  0
   -6.0586  -11.8853   11.9046 N   0  0  0  0  0  0  0  0  0  0  0  0
   -7.3194  -12.1963   11.8360 C   0  0  0  0  0  0  0  0  0  0  0  0
   -8.4777  -11.2657   11.5819 C   0  0  0  0  0  0  0  0  0  0  0  0
   -5.4959  -15.3543   12.5115 C   0  0  0  0  0  0  0  0  0  0  0  0
   -9.5175  -16.6905   12.0401 C   0  0  0  0  0  0  0  0  0  0  0  0
  -10.7032  -16.3815   12.5010 N   0  0  0  0  0  0  0  0  0  0  0  0
  -11.4889  -17.3911   12.3679 N   0  0  0  0  0  0  0  0  0  0  0  0
  -10.8398  -18.3774   11.8208 C   0  0  0  0  0  0  0  0  0  0  0  0
   -9.5795  -17.9586   11.5940 O   0  0  0  0  0  0  0  0  0  0  0  0
  -11.3978  -19.7382   11.4936 C   0  0  0  0  0  0  0  0  0  0  0  0
  -12.7382  -19.8003   11.8907 F   0  0  0  0  0  0  0  0  0  0  0  0
  -11.3088  -19.9608   10.1152 F   0  0  0  0  0  0  0  0  0  0  0  0
  -10.6650  -20.7186   12.1722 F   0  0  0  0  0  0  0  0  0  0  0  0
  1  2  1  0
  1 11  1  0
  2  3  2  0
  2  4  1  0
  4  5  2  0
  4  8  1  0
  5  6  1  0
  5 10  1  0
  6  7  1  0
  7  8  2  0
  8  9  1  0
 11 12  2  0
 11 15  1  0
 12 13  1  0
 13 14  2  0
 14 15  1  0
 14 16  1  0
 16 17  1  0
 16 18  1  0
 16 19  1  0
M  END
>  <Gold.Gold.Protein.RotatedWaterAtoms>  (152) 


>  <Gold.Id.Protein>  (152) 


>  <Gold.PLP.Chemscore.CHOScore>  (152) 
0.0000

>  <Gold.PLP.Chemscore.Hbond>  (152) 
1.8632

>  <Gold.PLP.Chemscore.Internal.Correction>  (152) 
0.0086

>  <Gold.PLP.Chemscore.Metal>  (152) 
0.0000

>  <Gold.PLP.Fitness>  (152) 
48.6767

>  <Gold.PLP.PLP>  (152) 
-43.6209

>  <Gold.PLP.ligand.clash>  (152) 
0.1370

>  <Gold.PLP.ligand.torsion>  (152) 
0.2027

>  <Gold.PLP.part.buried>  (152) 
-6.3734

>  <Gold.PLP.part.hbond>  (152) 
-5.3867

>  <Gold.PLP.part.metal>  (152) 
0.0000

>  <Gold.PLP.part.nonpolar>  (152) 
-31.1685

>  <Gold.PLP.part.repulsive>  (152) 
0.9506

>  <Gold.Protein.RotatedAtoms>  (152) 


>  <Gold.Protein.RotatedTorsions>  (152) 


>  <Gold.Protein.RotatedWaterAtoms>  (152) 


>  <Gold.Version>  (152) 
5.3.0

>  <PLP.Chemscore.CHOScore>  (152) 


>  <PLP.Chemscore.Hbond>  (152) 


>  <PLP.Chemscore.Internal.Correction>  (152) 


>  <PLP.Chemscore.Metal>  (152) 


>  <PLP.Fitness>  (152) 


>  <PLP.PLP>  (152) 


>  <PLP.ligand.clash>  (152) 


>  <PLP.ligand.torsion>  (152) 


>  <PLP.part.buried>  (152) 


>  <PLP.part.hbond>  (152) 


>  <PLP.part.metal>  (152) 


>  <PLP.part.nonpolar>  (152) 


>  <PLP.part.repulsive>  (152) 


>  <Version>  (152) 


$$$$
3152|Compound_1936|Compounds_3D_F|sdf|564|dock2|1
     RDKit          3D

 19 20  0  0  0  0  0  0  0  0999 V2000
   -9.4226  -16.6561   11.6147 N   0  0  0  0  0  0  0  0  0  0  0  0
   -8.0830  -16.8069   11.6160 C   0  0  0  0  0  0  0  0  0  0  0  0
   -7.5915  -17.8764   11.3101 O   0  0  0  0  0  0  0  0  0  0  0  0
   -7.2150  -15.6753   11.9880 C   0  0  0  0  0  0  0  0  0  0  0  0
   -5.8762  -15.6882   12.2953 C   0  0  0  0  0  0  0  0  0  0  0  0
   -5.5415  -14.4242   12.5653 O   0  0  0  0  0  0  0  0  0  0  0  0
   -6.4668  -13.6567   12.4682 N   0  0  0  0  0  0  0  0  0  0  0  0
   -7.5674  -14.2531   12.1159 C   0  0  0  0  0  0  0  0  0  0  0  0
   -8.9188  -13.6223   11.8969 C   0  0  0  0  0  0  0  0  0  0  0  0
   -4.9670  -16.8891   12.3238 C   0  0  0  0  0  0  0  0  0  0  0  0
  -10.2396  -17.7219   11.2697 C   0  0  0  0  0  0  0  0  0  0  0  0
  -10.0074  -18.9878   11.5095 N   0  0  0  0  0  0  0  0  0  0  0  0
  -10.9790  -19.6941   11.0499 N   0  0  0  0  0  0  0  0  0  0  0  0
  -11.8633  -18.9122   10.5023 C   0  0  0  0  0  0  0  0  0  0  0  0
  -11.4223  -17.6458   10.6322 O   0  0  0  0  0  0  0  0  0  0  0  0
  -13.1503  -19.3436    9.8482 C   0  0  0  0  0  0  0  0  0  0  0  0
  -13.7666  -18.2355    9.2563 F   0  0  0  0  0  0  0  0  0  0  0  0
  -12.8776  -20.3044    8.8685 F   0  0  0  0  0  0  0  0  0  0  0  0
  -14.0036  -19.8910   10.8130 F   0  0  0  0  0  0  0  0  0  0  0  0
  1  2  1  0
  1 11  1  0
  2  3  2  0
  2  4  1  0
  4  5  2  0
  4  8  1  0
  5  6  1  0
  5 10  1  0
  6  7  1  0
  7  8  2  0
  8  9  1  0
 11 12  2  0
 11 15  1  0
 12 13  1  0
 13 14  2  0
 14 15  1  0
 14 16  1  0
 16 17  1  0
 16 18  1  0
 16 19  1  0
M  END
>  <Gold.Gold.Protein.RotatedWaterAtoms>  (153) 


>  <Gold.Id.Protein>  (153) 


>  <Gold.PLP.Chemscore.CHOScore>  (153) 
0.0000

>  <Gold.PLP.Chemscore.Hbond>  (153) 
1.0000

>  <Gold.PLP.Chemscore.Internal.Correction>  (153) 
0.0050

>  <Gold.PLP.Chemscore.Metal>  (153) 
0.0000

>  <Gold.PLP.Fitness>  (153) 
44.0622

>  <Gold.PLP.PLP>  (153) 
-41.9158

>  <Gold.PLP.ligand.clash>  (153) 
0.0000

>  <Gold.PLP.ligand.torsion>  (153) 
0.4293

>  <Gold.PLP.part.buried>  (153) 
-6.8562

>  <Gold.PLP.part.hbond>  (153) 
-1.7545

>  <Gold.PLP.part.metal>  (153) 
0.0000

>  <Gold.PLP.part.nonpolar>  (153) 
-33.7401

>  <Gold.PLP.part.repulsive>  (153) 
0.4694

>  <Gold.Protein.RotatedAtoms>  (153) 


>  <Gold.Protein.RotatedTorsions>  (153) 


>  <Gold.Protein.RotatedWaterAtoms>  (153) 


>  <Gold.Version>  (153) 
5.3.0

>  <PLP.Chemscore.CHOScore>  (153) 


>  <PLP.Chemscore.Hbond>  (153) 


>  <PLP.Chemscore.Internal.Correction>  (153) 


>  <PLP.Chemscore.Metal>  (153) 


>  <PLP.Fitness>  (153) 


>  <PLP.PLP>  (153) 


>  <PLP.ligand.clash>  (153) 


>  <PLP.ligand.torsion>  (153) 


>  <PLP.part.buried>  (153) 


>  <PLP.part.hbond>  (153) 


>  <PLP.part.metal>  (153) 


>  <PLP.part.nonpolar>  (153) 


>  <PLP.part.repulsive>  (153) 


>  <Version>  (153) 


$$$$
3153|Compound_1936|Compounds_3D_F|sdf|564|dock3|1
     RDKit          3D

 19 20  0  0  0  0  0  0  0  0999 V2000
   -8.3246  -15.6402   11.9655 N   0  0  0  0  0  0  0  0  0  0  0  0
   -8.5018  -14.3175   12.1555 C   0  0  0  0  0  0  0  0  0  0  0  0
   -9.6142  -13.8790   12.3774 O   0  0  0  0  0  0  0  0  0  0  0  0
   -7.3470  -13.4036   12.0943 C   0  0  0  0  0  0  0  0  0  0  0  0
   -6.0139  -13.6973   12.2479 C   0  0  0  0  0  0  0  0  0  0  0  0
   -5.3575  -12.5429   12.1086 O   0  0  0  0  0  0  0  0  0  0  0  0
   -6.0855  -11.6053   11.8955 N   0  0  0  0  0  0  0  0  0  0  0  0
   -7.3374  -11.9537   11.8475 C   0  0  0  0  0  0  0  0  0  0  0  0
   -8.5261  -11.0596   11.6029 C   0  0  0  0  0  0  0  0  0  0  0  0
   -5.4122  -15.0512   12.5210 C   0  0  0  0  0  0  0  0  0  0  0  0
   -9.4115  -16.4996   12.0180 C   0  0  0  0  0  0  0  0  0  0  0  0
  -10.5971  -16.2235   12.4996 N   0  0  0  0  0  0  0  0  0  0  0  0
  -11.3555  -17.2557   12.3836 N   0  0  0  0  0  0  0  0  0  0  0  0
  -10.6882  -18.2246   11.8274 C   0  0  0  0  0  0  0  0  0  0  0  0
   -9.4448  -17.7703   11.5765 O   0  0  0  0  0  0  0  0  0  0  0  0
  -11.2124  -19.6020   11.5139 C   0  0  0  0  0  0  0  0  0  0  0  0
  -11.1807  -19.8092   10.1304 F   0  0  0  0  0  0  0  0  0  0  0  0
  -10.4149  -20.5611   12.1477 F   0  0  0  0  0  0  0  0  0  0  0  0
  -12.5300  -19.7153   11.9719 F   0  0  0  0  0  0  0  0  0  0  0  0
  1  2  1  0
  1 11  1  0
  2  3  2  0
  2  4  1  0
  4  5  2  0
  4  8  1  0
  5  6  1  0
  5 10  1  0
  6  7  1  0
  7  8  2  0
  8  9  1  0
 11 12  2  0
 11 15  1  0
 12 13  1  0
 13 14  2  0
 14 15  1  0
 14 16  1  0
 16 17  1  0
 16 18  1  0
 16 19  1  0
M  END
>  <Gold.Gold.Protein.RotatedWaterAtoms>  (154) 


>  <Gold.Id.Protein>  (154) 


>  <Gold.PLP.Chemscore.CHOScore>  (154) 
0.0000

>  <Gold.PLP.Chemscore.Hbond>  (154) 
2.0983

>  <Gold.PLP.Chemscore.Internal.Correction>  (154) 
0.0045

>  <Gold.PLP.Chemscore.Metal>  (154) 
0.0000

>  <Gold.PLP.Fitness>  (154) 
49.8373

>  <Gold.PLP.PLP>  (154) 
-44.0720

>  <Gold.PLP.ligand.clash>  (154) 
0.0000

>  <Gold.PLP.ligand.torsion>  (154) 
0.2670

>  <Gold.PLP.part.buried>  (154) 
-5.8737

>  <Gold.PLP.part.hbond>  (154) 
-5.0334

>  <Gold.PLP.part.metal>  (154) 
0.0000

>  <Gold.PLP.part.nonpolar>  (154) 
-32.5385

>  <Gold.PLP.part.repulsive>  (154) 
0.9784

>  <Gold.Protein.RotatedAtoms>  (154) 


>  <Gold.Protein.RotatedTorsions>  (154) 


>  <Gold.Protein.RotatedWaterAtoms>  (154) 


>  <Gold.Version>  (154) 
5.3.0

>  <PLP.Chemscore.CHOScore>  (154) 


>  <PLP.Chemscore.Hbond>  (154) 


>  <PLP.Chemscore.Internal.Correction>  (154) 


>  <PLP.Chemscore.Metal>  (154) 


>  <PLP.Fitness>  (154) 


>  <PLP.PLP>  (154) 


>  <PLP.ligand.clash>  (154) 


>  <PLP.ligand.torsion>  (154) 


>  <PLP.part.buried>  (154) 


>  <PLP.part.hbond>  (154) 


>  <PLP.part.metal>  (154) 


>  <PLP.part.nonpolar>  (154) 


>  <PLP.part.repulsive>  (154) 


>  <Version>  (154) 


$$$$
3154|Compound_1936|Compounds_3D_F|sdf|564|dock4|1
     RDKit          3D

 19 20  0  0  0  0  0  0  0  0999 V2000
   -8.4946  -17.0317   11.8788 N   0  0  0  0  0  0  0  0  0  0  0  0
   -8.6277  -15.6905   11.9000 C   0  0  0  0  0  0  0  0  0  0  0  0
   -9.7112  -15.1837   11.6804 O   0  0  0  0  0  0  0  0  0  0  0  0
   -7.4598  -14.8392   12.1897 C   0  0  0  0  0  0  0  0  0  0  0  0
   -7.3778  -13.4680   12.1849 C   0  0  0  0  0  0  0  0  0  0  0  0
   -6.1177  -13.1670   12.5081 O   0  0  0  0  0  0  0  0  0  0  0  0
   -5.4328  -14.1397   12.7060 N   0  0  0  0  0  0  0  0  0  0  0  0
   -6.0968  -15.2483   12.5610 C   0  0  0  0  0  0  0  0  0  0  0  0
   -5.5766  -16.6534   12.7266 C   0  0  0  0  0  0  0  0  0  0  0  0
   -8.4873  -12.4972   11.8751 C   0  0  0  0  0  0  0  0  0  0  0  0
   -9.5920  -17.8327   11.6014 C   0  0  0  0  0  0  0  0  0  0  0  0
   -9.5892  -18.9376   10.8992 N   0  0  0  0  0  0  0  0  0  0  0  0
  -10.7827  -19.4143   10.8496 N   0  0  0  0  0  0  0  0  0  0  0  0
  -11.5886  -18.6377   11.5134 C   0  0  0  0  0  0  0  0  0  0  0  0
  -10.8565  -17.6217   12.0106 O   0  0  0  0  0  0  0  0  0  0  0  0
  -13.0700  -18.8409   11.6988 C   0  0  0  0  0  0  0  0  0  0  0  0
  -13.2975  -20.0763   12.3153 F   0  0  0  0  0  0  0  0  0  0  0  0
  -13.5855  -17.8172   12.5012 F   0  0  0  0  0  0  0  0  0  0  0  0
  -13.7038  -18.8192   10.4512 F   0  0  0  0  0  0  0  0  0  0  0  0
  1  2  1  0
  1 11  1  0
  2  3  2  0
  2  4  1  0
  4  5  2  0
  4  8  1  0
  5  6  1  0
  5 10  1  0
  6  7  1  0
  7  8  2  0
  8  9  1  0
 11 12  2  0
 11 15  1  0
 12 13  1  0
 13 14  2  0
 14 15  1  0
 14 16  1  0
 16 17  1  0
 16 18  1  0
 16 19  1  0
M  END
>  <Gold.Gold.Protein.RotatedWaterAtoms>  (155) 


>  <Gold.Id.Protein>  (155) 


>  <Gold.PLP.Chemscore.CHOScore>  (155) 
0.0000

>  <Gold.PLP.Chemscore.Hbond>  (155) 
1.4014

>  <Gold.PLP.Chemscore.Internal.Correction>  (155) 
0.0045

>  <Gold.PLP.Chemscore.Metal>  (155) 
0.0000

>  <Gold.PLP.Fitness>  (155) 
47.6481

>  <Gold.PLP.PLP>  (155) 
-44.0328

>  <Gold.PLP.ligand.clash>  (155) 
0.0000

>  <Gold.PLP.ligand.torsion>  (155) 
0.2967

>  <Gold.PLP.part.buried>  (155) 
-10.2625

>  <Gold.PLP.part.hbond>  (155) 
-1.3364

>  <Gold.PLP.part.metal>  (155) 
0.0000

>  <Gold.PLP.part.nonpolar>  (155) 
-32.5039

>  <Gold.PLP.part.repulsive>  (155) 
0.6984

>  <Gold.Protein.RotatedAtoms>  (155) 


>  <Gold.Protein.RotatedTorsions>  (155) 


>  <Gold.Protein.RotatedWaterAtoms>  (155) 


>  <Gold.Version>  (155) 
5.3.0

>  <PLP.Chemscore.CHOScore>  (155) 


>  <PLP.Chemscore.Hbond>  (155) 


>  <PLP.Chemscore.Internal.Correction>  (155) 


>  <PLP.Chemscore.Metal>  (155) 


>  <PLP.Fitness>  (155) 


>  <PLP.PLP>  (155) 


>  <PLP.ligand.clash>  (155) 


>  <PLP.ligand.torsion>  (155) 


>  <PLP.part.buried>  (155) 


>  <PLP.part.hbond>  (155) 


>  <PLP.part.metal>  (155) 


>  <PLP.part.nonpolar>  (155) 


>  <PLP.part.repulsive>  (155) 


>  <Version>  (155) 


$$$$
3155|Compound_1936|Compounds_3D_F|sdf|564|dock5|1
     RDKit          3D

 19 20  0  0  0  0  0  0  0  0999 V2000
   -8.3057  -15.4117   12.3402 N   0  0  0  0  0  0  0  0  0  0  0  0
   -8.4118  -14.1547   11.8652 C   0  0  0  0  0  0  0  0  0  0  0  0
   -9.4362  -13.7968   11.3162 O   0  0  0  0  0  0  0  0  0  0  0  0
   -7.2858  -13.2148   12.0117 C   0  0  0  0  0  0  0  0  0  0  0  0
   -7.2936  -11.8457   11.9000 C   0  0  0  0  0  0  0  0  0  0  0  0
   -6.0380  -11.4452   12.1144 O   0  0  0  0  0  0  0  0  0  0  0  0
   -5.2802  -12.3566   12.3371 N   0  0  0  0  0  0  0  0  0  0  0  0
   -5.8785  -13.5111   12.3196 C   0  0  0  0  0  0  0  0  0  0  0  0
   -5.2588  -14.8652   12.5532 C   0  0  0  0  0  0  0  0  0  0  0  0
   -8.4811  -10.9704   11.5947 C   0  0  0  0  0  0  0  0  0  0  0  0
   -9.3628  -16.2977   12.1981 C   0  0  0  0  0  0  0  0  0  0  0  0
  -10.5907  -16.1147   12.6140 N   0  0  0  0  0  0  0  0  0  0  0  0
  -11.3015  -17.1424   12.3098 N   0  0  0  0  0  0  0  0  0  0  0  0
  -10.5605  -18.0159   11.6925 C   0  0  0  0  0  0  0  0  0  0  0  0
   -9.3182  -17.5025   11.6005 O   0  0  0  0  0  0  0  0  0  0  0  0
  -11.0109  -19.3550   11.1689 C   0  0  0  0  0  0  0  0  0  0  0  0
   -9.9335  -20.0009   10.5525 F   0  0  0  0  0  0  0  0  0  0  0  0
  -11.4795  -20.1380   12.2295 F   0  0  0  0  0  0  0  0  0  0  0  0
  -12.0383  -19.1700   10.2368 F   0  0  0  0  0  0  0  0  0  0  0  0
  1  2  1  0
  1 11  1  0
  2  3  2  0
  2  4  1  0
  4  5  2  0
  4  8  1  0
  5  6  1  0
  5 10  1  0
  6  7  1  0
  7  8  2  0
  8  9  1  0
 11 12  2  0
 11 15  1  0
 12 13  1  0
 13 14  2  0
 14 15  1  0
 14 16  1  0
 16 17  1  0
 16 18  1  0
 16 19  1  0
M  END
>  <Gold.Gold.Protein.RotatedWaterAtoms>  (156) 


>  <Gold.Id.Protein>  (156) 


>  <Gold.PLP.Chemscore.CHOScore>  (156) 
0.0000

>  <Gold.PLP.Chemscore.Hbond>  (156) 
0.9912

>  <Gold.PLP.Chemscore.Internal.Correction>  (156) 
0.0003

>  <Gold.PLP.Chemscore.Metal>  (156) 
0.0000

>  <Gold.PLP.Fitness>  (156) 
45.6899

>  <Gold.PLP.PLP>  (156) 
-44.0156

>  <Gold.PLP.ligand.clash>  (156) 
0.0000

>  <Gold.PLP.ligand.torsion>  (156) 
0.6497

>  <Gold.PLP.part.buried>  (156) 
-6.3987

>  <Gold.PLP.part.hbond>  (156) 
-4.7710

>  <Gold.PLP.part.metal>  (156) 
0.0000

>  <Gold.PLP.part.nonpolar>  (156) 
-33.5966

>  <Gold.PLP.part.repulsive>  (156) 
1.0943

>  <Gold.Protein.RotatedAtoms>  (156) 


>  <Gold.Protein.RotatedTorsions>  (156) 


>  <Gold.Protein.RotatedWaterAtoms>  (156) 


>  <Gold.Version>  (156) 
5.3.0

>  <PLP.Chemscore.CHOScore>  (156) 


>  <PLP.Chemscore.Hbond>  (156) 


>  <PLP.Chemscore.Internal.Correction>  (156) 


>  <PLP.Chemscore.Metal>  (156) 


>  <PLP.Fitness>  (156) 


>  <PLP.PLP>  (156) 


>  <PLP.ligand.clash>  (156) 


>  <PLP.ligand.torsion>  (156) 


>  <PLP.part.buried>  (156) 


>  <PLP.part.hbond>  (156) 


>  <PLP.part.metal>  (156) 


>  <PLP.part.nonpolar>  (156) 


>  <PLP.part.repulsive>  (156) 


>  <Version>  (156) 


$$$$
3156|Compound_1936|Compounds_3D_F|sdf|564|dock6|1
     RDKit          3D

 19 20  0  0  0  0  0  0  0  0999 V2000
   -8.3070  -15.5962   12.0730 N   0  0  0  0  0  0  0  0  0  0  0  0
   -8.4811  -14.2609   12.1340 C   0  0  0  0  0  0  0  0  0  0  0  0
   -9.6034  -13.7965   12.1972 O   0  0  0  0  0  0  0  0  0  0  0  0
   -7.3111  -13.3646   12.1242 C   0  0  0  0  0  0  0  0  0  0  0  0
   -5.9898  -13.6795   12.3297 C   0  0  0  0  0  0  0  0  0  0  0  0
   -5.3109  -12.5347   12.2232 O   0  0  0  0  0  0  0  0  0  0  0  0
   -6.0154  -11.5850   11.9862 N   0  0  0  0  0  0  0  0  0  0  0  0
   -7.2695  -11.9138   11.8861 C   0  0  0  0  0  0  0  0  0  0  0  0
   -8.4337  -11.0004   11.5988 C   0  0  0  0  0  0  0  0  0  0  0  0
   -5.4203  -15.0438   12.6193 C   0  0  0  0  0  0  0  0  0  0  0  0
   -9.4077  -16.4394   12.0771 C   0  0  0  0  0  0  0  0  0  0  0  0
  -10.5790  -16.1849   12.6037 N   0  0  0  0  0  0  0  0  0  0  0  0
  -11.3575  -17.1918   12.4189 N   0  0  0  0  0  0  0  0  0  0  0  0
  -10.7181  -18.1223   11.7718 C   0  0  0  0  0  0  0  0  0  0  0  0
   -9.4719  -17.6689   11.5337 O   0  0  0  0  0  0  0  0  0  0  0  0
  -11.2724  -19.4606   11.3574 C   0  0  0  0  0  0  0  0  0  0  0  0
  -10.2696  -20.2054   10.7266 F   0  0  0  0  0  0  0  0  0  0  0  0
  -11.7242  -20.1499   12.4879 F   0  0  0  0  0  0  0  0  0  0  0  0
  -12.3385  -19.2700   10.4709 F   0  0  0  0  0  0  0  0  0  0  0  0
  1  2  1  0
  1 11  1  0
  2  3  2  0
  2  4  1  0
  4  5  2  0
  4  8  1  0
  5  6  1  0
  5 10  1  0
  6  7  1  0
  7  8  2  0
  8  9  1  0
 11 12  2  0
 11 15  1  0
 12 13  1  0
 13 14  2  0
 14 15  1  0
 14 16  1  0
 16 17  1  0
 16 18  1  0
 16 19  1  0
M  END
>  <Gold.Gold.Protein.RotatedWaterAtoms>  (157) 


>  <Gold.Id.Protein>  (157) 


>  <Gold.PLP.Chemscore.CHOScore>  (157) 
0.0000

>  <Gold.PLP.Chemscore.Hbond>  (157) 
1.0701

>  <Gold.PLP.Chemscore.Internal.Correction>  (157) 
0.0003

>  <Gold.PLP.Chemscore.Metal>  (157) 
0.0000

>  <Gold.PLP.Fitness>  (157) 
46.4948

>  <Gold.PLP.PLP>  (157) 
-44.1717

>  <Gold.PLP.ligand.clash>  (157) 
0.3496

>  <Gold.PLP.ligand.torsion>  (157) 
0.2690

>  <Gold.PLP.part.buried>  (157) 
-6.5770

>  <Gold.PLP.part.hbond>  (157) 
-4.9974

>  <Gold.PLP.part.metal>  (157) 
0.0000

>  <Gold.PLP.part.nonpolar>  (157) 
-32.9681

>  <Gold.PLP.part.repulsive>  (157) 
1.0359

>  <Gold.Protein.RotatedAtoms>  (157) 


>  <Gold.Protein.RotatedTorsions>  (157) 


>  <Gold.Protein.RotatedWaterAtoms>  (157) 


>  <Gold.Version>  (157) 
5.3.0

>  <PLP.Chemscore.CHOScore>  (157) 


>  <PLP.Chemscore.Hbond>  (157) 


>  <PLP.Chemscore.Internal.Correction>  (157) 


>  <PLP.Chemscore.Metal>  (157) 


>  <PLP.Fitness>  (157) 


>  <PLP.PLP>  (157) 


>  <PLP.ligand.clash>  (157) 


>  <PLP.ligand.torsion>  (157) 


>  <PLP.part.buried>  (157) 


>  <PLP.part.hbond>  (157) 


>  <PLP.part.metal>  (157) 


>  <PLP.part.nonpolar>  (157) 


>  <PLP.part.repulsive>  (157) 


>  <Version>  (157) 


$$$$
3157|Compound_1936|Compounds_3D_F|sdf|564|dock7|1
     RDKit          3D

 19 20  0  0  0  0  0  0  0  0999 V2000
   -8.9916  -17.5539   10.7571 N   0  0  0  0  0  0  0  0  0  0  0  0
   -9.0701  -16.5129   11.6099 C   0  0  0  0  0  0  0  0  0  0  0  0
  -10.1093  -16.2877   12.2001 O   0  0  0  0  0  0  0  0  0  0  0  0
   -7.8962  -15.6483   11.8264 C   0  0  0  0  0  0  0  0  0  0  0  0
   -7.8623  -14.2988   12.0810 C   0  0  0  0  0  0  0  0  0  0  0  0
   -6.5731  -13.9725   12.2008 O   0  0  0  0  0  0  0  0  0  0  0  0
   -5.8302  -14.9119   12.0589 N   0  0  0  0  0  0  0  0  0  0  0  0
   -6.4729  -16.0187   11.8292 C   0  0  0  0  0  0  0  0  0  0  0  0
   -5.8835  -17.3875   11.6022 C   0  0  0  0  0  0  0  0  0  0  0  0
   -9.0436  -13.3714   12.1996 C   0  0  0  0  0  0  0  0  0  0  0  0
  -10.0972  -18.3645   10.5494 C   0  0  0  0  0  0  0  0  0  0  0  0
  -10.1638  -19.6553   10.7575 N   0  0  0  0  0  0  0  0  0  0  0  0
  -11.3422  -20.0751   10.4587 N   0  0  0  0  0  0  0  0  0  0  0  0
  -12.0689  -19.0758   10.0507 C   0  0  0  0  0  0  0  0  0  0  0  0
  -11.3033  -17.9683   10.1030 O   0  0  0  0  0  0  0  0  0  0  0  0
  -13.5073  -19.1430    9.6071 C   0  0  0  0  0  0  0  0  0  0  0  0
  -13.9022  -17.8941    9.1150 F   0  0  0  0  0  0  0  0  0  0  0  0
  -13.6414  -20.1050    8.6000 F   0  0  0  0  0  0  0  0  0  0  0  0
  -14.3154  -19.4917   10.6952 F   0  0  0  0  0  0  0  0  0  0  0  0
  1  2  1  0
  1 11  1  0
  2  3  2  0
  2  4  1  0
  4  5  2  0
  4  8  1  0
  5  6  1  0
  5 10  1  0
  6  7  1  0
  7  8  2  0
  8  9  1  0
 11 12  2  0
 11 15  1  0
 12 13  1  0
 13 14  2  0
 14 15  1  0
 14 16  1  0
 16 17  1  0
 16 18  1  0
 16 19  1  0
M  END
>  <Gold.Gold.Protein.RotatedWaterAtoms>  (158) 


>  <Gold.Id.Protein>  (158) 


>  <Gold.PLP.Chemscore.CHOScore>  (158) 
0.0000

>  <Gold.PLP.Chemscore.Hbond>  (158) 
1.0000

>  <Gold.PLP.Chemscore.Internal.Correction>  (158) 
0.0003

>  <Gold.PLP.Chemscore.Metal>  (158) 
0.0000

>  <Gold.PLP.Fitness>  (158) 
44.8526

>  <Gold.PLP.PLP>  (158) 
-44.0992

>  <Gold.PLP.ligand.clash>  (158) 
0.0000

>  <Gold.PLP.ligand.torsion>  (158) 
1.1234

>  <Gold.PLP.part.buried>  (158) 
-7.4711

>  <Gold.PLP.part.hbond>  (158) 
-1.5708

>  <Gold.PLP.part.metal>  (158) 
0.0000

>  <Gold.PLP.part.nonpolar>  (158) 
-34.8904

>  <Gold.PLP.part.repulsive>  (158) 
0.3716

>  <Gold.Protein.RotatedAtoms>  (158) 


>  <Gold.Protein.RotatedTorsions>  (158) 


>  <Gold.Protein.RotatedWaterAtoms>  (158) 


>  <Gold.Version>  (158) 
5.3.0

>  <PLP.Chemscore.CHOScore>  (158) 


>  <PLP.Chemscore.Hbond>  (158) 


>  <PLP.Chemscore.Internal.Correction>  (158) 


>  <PLP.Chemscore.Metal>  (158) 


>  <PLP.Fitness>  (158) 


>  <PLP.PLP>  (158) 


>  <PLP.ligand.clash>  (158) 


>  <PLP.ligand.torsion>  (158) 


>  <PLP.part.buried>  (158) 


>  <PLP.part.hbond>  (158) 


>  <PLP.part.metal>  (158) 


>  <PLP.part.nonpolar>  (158) 


>  <PLP.part.repulsive>  (158) 


>  <Version>  (158) 


$$$$
3158|Compound_1936|Compounds_3D_F|sdf|564|dock8|1
     RDKit          3D

 19 20  0  0  0  0  0  0  0  0999 V2000
   -8.9984  -16.9437   11.4404 N   0  0  0  0  0  0  0  0  0  0  0  0
   -8.8817  -15.6817   11.8995 C   0  0  0  0  0  0  0  0  0  0  0  0
   -9.8686  -15.0771   12.2730 O   0  0  0  0  0  0  0  0  0  0  0  0
   -7.5578  -15.0356   11.9487 C   0  0  0  0  0  0  0  0  0  0  0  0
   -7.2598  -13.6947   11.9653 C   0  0  0  0  0  0  0  0  0  0  0  0
   -5.9282  -13.6074   12.0110 O   0  0  0  0  0  0  0  0  0  0  0  0
   -5.3820  -14.6825   12.0249 N   0  0  0  0  0  0  0  0  0  0  0  0
   -6.2306  -15.6674   11.9981 C   0  0  0  0  0  0  0  0  0  0  0  0
   -5.9194  -17.1423   12.0045 C   0  0  0  0  0  0  0  0  0  0  0  0
   -8.2395  -12.5506   11.9360 C   0  0  0  0  0  0  0  0  0  0  0  0
  -10.2443  -17.5501   11.3894 C   0  0  0  0  0  0  0  0  0  0  0  0
  -10.9988  -17.8616   12.4129 N   0  0  0  0  0  0  0  0  0  0  0  0
  -12.0841  -18.4083   11.9919 N   0  0  0  0  0  0  0  0  0  0  0  0
  -12.0651  -18.4670   10.6921 C   0  0  0  0  0  0  0  0  0  0  0  0
  -10.9052  -17.9210   10.2774 O   0  0  0  0  0  0  0  0  0  0  0  0
  -13.1464  -19.0354    9.8101 C   0  0  0  0  0  0  0  0  0  0  0  0
  -14.1998  -19.5007   10.6051 F   0  0  0  0  0  0  0  0  0  0  0  0
  -13.6175  -18.0398    8.9474 F   0  0  0  0  0  0  0  0  0  0  0  0
  -12.6265  -20.0955    9.0587 F   0  0  0  0  0  0  0  0  0  0  0  0
  1  2  1  0
  1 11  1  0
  2  3  2  0
  2  4  1  0
  4  5  2  0
  4  8  1  0
  5  6  1  0
  5 10  1  0
  6  7  1  0
  7  8  2  0
  8  9  1  0
 11 12  2  0
 11 15  1  0
 12 13  1  0
 13 14  2  0
 14 15  1  0
 14 16  1  0
 16 17  1  0
 16 18  1  0
 16 19  1  0
M  END
>  <Gold.Gold.Protein.RotatedWaterAtoms>  (159) 


>  <Gold.Id.Protein>  (159) 


>  <Gold.PLP.Chemscore.CHOScore>  (159) 
0.0000

>  <Gold.PLP.Chemscore.Hbond>  (159) 
1.8620

>  <Gold.PLP.Chemscore.Internal.Correction>  (159) 
0.0003

>  <Gold.PLP.Chemscore.Metal>  (159) 
0.0000

>  <Gold.PLP.Fitness>  (159) 
46.2593

>  <Gold.PLP.PLP>  (159) 
-42.3682

>  <Gold.PLP.ligand.clash>  (159) 
0.0000

>  <Gold.PLP.ligand.torsion>  (159) 
0.8476

>  <Gold.PLP.part.buried>  (159) 
-6.5491

>  <Gold.PLP.part.hbond>  (159) 
-3.0713

>  <Gold.PLP.part.metal>  (159) 
0.0000

>  <Gold.PLP.part.nonpolar>  (159) 
-33.2854

>  <Gold.PLP.part.repulsive>  (159) 
0.6282

>  <Gold.Protein.RotatedAtoms>  (159) 


>  <Gold.Protein.RotatedTorsions>  (159) 


>  <Gold.Protein.RotatedWaterAtoms>  (159) 


>  <Gold.Version>  (159) 
5.3.0

>  <PLP.Chemscore.CHOScore>  (159) 


>  <PLP.Chemscore.Hbond>  (159) 


>  <PLP.Chemscore.Internal.Correction>  (159) 


>  <PLP.Chemscore.Metal>  (159) 


>  <PLP.Fitness>  (159) 


>  <PLP.PLP>  (159) 


>  <PLP.ligand.clash>  (159) 


>  <PLP.ligand.torsion>  (159) 


>  <PLP.part.buried>  (159) 


>  <PLP.part.hbond>  (159) 


>  <PLP.part.metal>  (159) 


>  <PLP.part.nonpolar>  (159) 


>  <PLP.part.repulsive>  (159) 


>  <Version>  (159) 


$$$$
3159|Compound_1936|Compounds_3D_F|sdf|564|dock9|1
     RDKit          3D

 19 20  0  0  0  0  0  0  0  0999 V2000
   -8.2897  -15.5069   11.9546 N   0  0  0  0  0  0  0  0  0  0  0  0
   -8.5102  -14.1865   12.1125 C   0  0  0  0  0  0  0  0  0  0  0  0
   -9.6429  -13.7746   12.2750 O   0  0  0  0  0  0  0  0  0  0  0  0
   -7.3781  -13.2430   12.0883 C   0  0  0  0  0  0  0  0  0  0  0  0
   -6.0419  -13.5042   12.2709 C   0  0  0  0  0  0  0  0  0  0  0  0
   -5.4123  -12.3321   12.1591 O   0  0  0  0  0  0  0  0  0  0  0  0
   -6.1589  -11.4111   11.9382 N   0  0  0  0  0  0  0  0  0  0  0  0
   -7.3999  -11.7907   11.8566 C   0  0  0  0  0  0  0  0  0  0  0  0
   -8.6051  -10.9246   11.5926 C   0  0  0  0  0  0  0  0  0  0  0  0
   -5.4124  -14.8452   12.5447 C   0  0  0  0  0  0  0  0  0  0  0  0
   -9.3550  -16.3943   11.9723 C   0  0  0  0  0  0  0  0  0  0  0  0
  -10.5335  -16.1824   12.5016 N   0  0  0  0  0  0  0  0  0  0  0  0
  -11.2710  -17.2221   12.3307 N   0  0  0  0  0  0  0  0  0  0  0  0
  -10.5967  -18.1324   11.6902 C   0  0  0  0  0  0  0  0  0  0  0  0
   -9.3711  -17.6310   11.4419 O   0  0  0  0  0  0  0  0  0  0  0  0
  -11.0975  -19.4965   11.2920 C   0  0  0  0  0  0  0  0  0  0  0  0
  -12.4396  -19.6278   11.6657 F   0  0  0  0  0  0  0  0  0  0  0  0
  -10.9818  -19.6508    9.9063 F   0  0  0  0  0  0  0  0  0  0  0  0
  -10.3365  -20.4791   11.9355 F   0  0  0  0  0  0  0  0  0  0  0  0
  1  2  1  0
  1 11  1  0
  2  3  2  0
  2  4  1  0
  4  5  2  0
  4  8  1  0
  5  6  1  0
  5 10  1  0
  6  7  1  0
  7  8  2  0
  8  9  1  0
 11 12  2  0
 11 15  1  0
 12 13  1  0
 13 14  2  0
 14 15  1  0
 14 16  1  0
 16 17  1  0
 16 18  1  0
 16 19  1  0
M  END
>  <Gold.Gold.Protein.RotatedWaterAtoms>  (160) 


>  <Gold.Id.Protein>  (160) 


>  <Gold.PLP.Chemscore.CHOScore>  (160) 
0.0000

>  <Gold.PLP.Chemscore.Hbond>  (160) 
2.0772

>  <Gold.PLP.Chemscore.Internal.Correction>  (160) 
0.0003

>  <Gold.PLP.Chemscore.Metal>  (160) 
0.0000

>  <Gold.PLP.Fitness>  (160) 
49.7189

>  <Gold.PLP.PLP>  (160) 
-44.0569

>  <Gold.PLP.ligand.clash>  (160) 
0.0000

>  <Gold.PLP.ligand.torsion>  (160) 
0.2849

>  <Gold.PLP.part.buried>  (160) 
-6.0449

>  <Gold.PLP.part.hbond>  (160) 
-4.3481

>  <Gold.PLP.part.metal>  (160) 
0.0000

>  <Gold.PLP.part.nonpolar>  (160) 
-32.2541

>  <Gold.PLP.part.repulsive>  (160) 
0.9772

>  <Gold.Protein.RotatedAtoms>  (160) 


>  <Gold.Protein.RotatedTorsions>  (160) 


>  <Gold.Protein.RotatedWaterAtoms>  (160) 


>  <Gold.Version>  (160) 
5.3.0

>  <PLP.Chemscore.CHOScore>  (160) 


>  <PLP.Chemscore.Hbond>  (160) 


>  <PLP.Chemscore.Internal.Correction>  (160) 


>  <PLP.Chemscore.Metal>  (160) 


>  <PLP.Fitness>  (160) 


>  <PLP.PLP>  (160) 


>  <PLP.ligand.clash>  (160) 


>  <PLP.ligand.torsion>  (160) 


>  <PLP.part.buried>  (160) 


>  <PLP.part.hbond>  (160) 


>  <PLP.part.metal>  (160) 


>  <PLP.part.nonpolar>  (160) 


>  <PLP.part.repulsive>  (160) 


>  <Version>  (160) 


$$$$
3160|Compound_1939|Compounds_3D_F|sdf|565|dock1|1
     RDKit          3D

 19 20  0  0  0  0  0  0  0  0999 V2000
   -8.2981  -16.0319   11.9694 N   0  0  0  0  0  0  0  0  0  0  0  0
   -8.4748  -14.7000   12.0790 C   0  0  0  0  0  0  0  0  0  0  0  0
   -9.5953  -14.2437   12.2024 O   0  0  0  0  0  0  0  0  0  0  0  0
   -7.3097  -13.7978   12.0493 C   0  0  0  0  0  0  0  0  0  0  0  0
   -7.2838  -12.4395   11.8458 C   0  0  0  0  0  0  0  0  0  0  0  0
   -6.0005  -12.0758   11.9075 O   0  0  0  0  0  0  0  0  0  0  0  0
   -5.2538  -13.0009   12.1161 N   0  0  0  0  0  0  0  0  0  0  0  0
   -5.8889  -14.1288   12.2362 C   0  0  0  0  0  0  0  0  0  0  0  0
   -5.2934  -15.4884   12.4993 C   0  0  0  0  0  0  0  0  0  0  0  0
   -8.4668  -11.5396   11.6002 C   0  0  0  0  0  0  0  0  0  0  0  0
   -9.3964  -16.8829   11.9923 C   0  0  0  0  0  0  0  0  0  0  0  0
  -10.6370  -16.6637   12.4079 N   0  0  0  0  0  0  0  0  0  0  0  0
  -11.5236  -17.5587   12.3559 N   0  0  0  0  0  0  0  0  0  0  0  0
  -11.2760  -18.7665   11.8878 C   0  0  0  0  0  0  0  0  0  0  0  0
   -9.5465  -18.5865   11.4617 S   0  0  0  0  0  0  0  0  0  0  0  0
  -12.1896  -19.9564   11.7459 C   0  0  0  0  0  0  0  0  0  0  0  0
  -11.4701  -21.0380   11.2270 F   0  0  0  0  0  0  0  0  0  0  0  0
  -12.7064  -20.2992   13.0000 F   0  0  0  0  0  0  0  0  0  0  0  0
  -13.2405  -19.6365   10.8794 F   0  0  0  0  0  0  0  0  0  0  0  0
  1  2  1  0
  1 11  1  0
  2  3  2  0
  2  4  1  0
  4  5  2  0
  4  8  1  0
  5  6  1  0
  5 10  1  0
  6  7  1  0
  7  8  2  0
  8  9  1  0
 11 12  2  0
 11 15  1  0
 12 13  1  0
 13 14  2  0
 14 15  1  0
 14 16  1  0
 16 17  1  0
 16 18  1  0
 16 19  1  0
M  END
>  <Gold.Gold.Protein.RotatedWaterAtoms>  (161) 


>  <Gold.Id.Protein>  (161) 


>  <Gold.PLP.Chemscore.CHOScore>  (161) 
0.0000

>  <Gold.PLP.Chemscore.Hbond>  (161) 
1.6000

>  <Gold.PLP.Chemscore.Internal.Correction>  (161) 
0.0020

>  <Gold.PLP.Chemscore.Metal>  (161) 
0.0000

>  <Gold.PLP.Fitness>  (161) 
47.8940

>  <Gold.PLP.PLP>  (161) 
-43.4796

>  <Gold.PLP.ligand.clash>  (161) 
0.0000

>  <Gold.PLP.ligand.torsion>  (161) 
0.1938

>  <Gold.PLP.part.buried>  (161) 
-8.1151

>  <Gold.PLP.part.hbond>  (161) 
-5.4222

>  <Gold.PLP.part.metal>  (161) 
0.0000

>  <Gold.PLP.part.nonpolar>  (161) 
-31.1222

>  <Gold.PLP.part.repulsive>  (161) 
0.9212

>  <Gold.Protein.RotatedAtoms>  (161) 


>  <Gold.Protein.RotatedTorsions>  (161) 


>  <Gold.Protein.RotatedWaterAtoms>  (161) 


>  <Gold.Version>  (161) 
5.3.0

>  <PLP.Chemscore.CHOScore>  (161) 


>  <PLP.Chemscore.Hbond>  (161) 


>  <PLP.Chemscore.Internal.Correction>  (161) 


>  <PLP.Chemscore.Metal>  (161) 


>  <PLP.Fitness>  (161) 


>  <PLP.PLP>  (161) 


>  <PLP.ligand.clash>  (161) 


>  <PLP.ligand.torsion>  (161) 


>  <PLP.part.buried>  (161) 


>  <PLP.part.hbond>  (161) 


>  <PLP.part.metal>  (161) 


>  <PLP.part.nonpolar>  (161) 


>  <PLP.part.repulsive>  (161) 


>  <Version>  (161) 


$$$$
3161|Compound_1939|Compounds_3D_F|sdf|565|dock2|1
     RDKit          3D

 19 20  0  0  0  0  0  0  0  0999 V2000
   -8.6579  -17.2842   11.7321 N   0  0  0  0  0  0  0  0  0  0  0  0
   -8.4078  -15.9723   11.5489 C   0  0  0  0  0  0  0  0  0  0  0  0
   -9.2843  -15.2385   11.1340 O   0  0  0  0  0  0  0  0  0  0  0  0
   -7.0719  -15.4282   11.8519 C   0  0  0  0  0  0  0  0  0  0  0  0
   -6.7226  -14.1341   12.1525 C   0  0  0  0  0  0  0  0  0  0  0  0
   -5.4016  -14.1380   12.3469 O   0  0  0  0  0  0  0  0  0  0  0  0
   -4.9044  -15.2294   12.2109 N   0  0  0  0  0  0  0  0  0  0  0  0
   -5.7852  -16.1380   11.9131 C   0  0  0  0  0  0  0  0  0  0  0  0
   -5.5374  -17.6050   11.6706 C   0  0  0  0  0  0  0  0  0  0  0  0
   -7.6454  -12.9466   12.2428 C   0  0  0  0  0  0  0  0  0  0  0  0
   -9.9157  -17.7990   11.4419 C   0  0  0  0  0  0  0  0  0  0  0  0
  -11.0768  -17.6109   12.0553 N   0  0  0  0  0  0  0  0  0  0  0  0
  -12.1378  -18.1611   11.6537 N   0  0  0  0  0  0  0  0  0  0  0  0
  -12.1620  -18.9572   10.6026 C   0  0  0  0  0  0  0  0  0  0  0  0
  -10.4365  -18.8991   10.1286 S   0  0  0  0  0  0  0  0  0  0  0  0
  -13.3141  -19.6987    9.9754 C   0  0  0  0  0  0  0  0  0  0  0  0
  -12.8325  -20.5489    8.9744 F   0  0  0  0  0  0  0  0  0  0  0  0
  -13.9692  -20.4548   10.9534 F   0  0  0  0  0  0  0  0  0  0  0  0
  -14.2103  -18.7810    9.4166 F   0  0  0  0  0  0  0  0  0  0  0  0
  1  2  1  0
  1 11  1  0
  2  3  2  0
  2  4  1  0
  4  5  2  0
  4  8  1  0
  5  6  1  0
  5 10  1  0
  6  7  1  0
  7  8  2  0
  8  9  1  0
 11 12  2  0
 11 15  1  0
 12 13  1  0
 13 14  2  0
 14 15  1  0
 14 16  1  0
 16 17  1  0
 16 18  1  0
 16 19  1  0
M  END
>  <Gold.Gold.Protein.RotatedWaterAtoms>  (162) 


>  <Gold.Id.Protein>  (162) 


>  <Gold.PLP.Chemscore.CHOScore>  (162) 
0.0000

>  <Gold.PLP.Chemscore.Hbond>  (162) 
1.2771

>  <Gold.PLP.Chemscore.Internal.Correction>  (162) 
0.0020

>  <Gold.PLP.Chemscore.Metal>  (162) 
0.0000

>  <Gold.PLP.Fitness>  (162) 
44.4168

>  <Gold.PLP.PLP>  (162) 
-42.6652

>  <Gold.PLP.ligand.clash>  (162) 
0.0000

>  <Gold.PLP.ligand.torsion>  (162) 
1.0408

>  <Gold.PLP.part.buried>  (162) 
-9.3647

>  <Gold.PLP.part.hbond>  (162) 
-3.5235

>  <Gold.PLP.part.metal>  (162) 
0.0000

>  <Gold.PLP.part.nonpolar>  (162) 
-31.3765

>  <Gold.PLP.part.repulsive>  (162) 
0.6396

>  <Gold.Protein.RotatedAtoms>  (162) 


>  <Gold.Protein.RotatedTorsions>  (162) 


>  <Gold.Protein.RotatedWaterAtoms>  (162) 


>  <Gold.Version>  (162) 
5.3.0

>  <PLP.Chemscore.CHOScore>  (162) 


>  <PLP.Chemscore.Hbond>  (162) 


>  <PLP.Chemscore.Internal.Correction>  (162) 


>  <PLP.Chemscore.Metal>  (162) 


>  <PLP.Fitness>  (162) 


>  <PLP.PLP>  (162) 


>  <PLP.ligand.clash>  (162) 


>  <PLP.ligand.torsion>  (162) 


>  <PLP.part.buried>  (162) 


>  <PLP.part.hbond>  (162) 


>  <PLP.part.metal>  (162) 


>  <PLP.part.nonpolar>  (162) 


>  <PLP.part.repulsive>  (162) 


>  <Version>  (162) 


$$$$
3162|Compound_1939|Compounds_3D_F|sdf|565|dock3|1
     RDKit          3D

 19 20  0  0  0  0  0  0  0  0999 V2000
   -8.0945  -15.4048   11.9844 N   0  0  0  0  0  0  0  0  0  0  0  0
   -8.3529  -14.0874   12.1060 C   0  0  0  0  0  0  0  0  0  0  0  0
   -9.5017  -13.6996   12.2006 O   0  0  0  0  0  0  0  0  0  0  0  0
   -7.2428  -13.1180   12.1244 C   0  0  0  0  0  0  0  0  0  0  0  0
   -5.9079  -13.3494   12.3511 C   0  0  0  0  0  0  0  0  0  0  0  0
   -5.3021  -12.1625   12.2659 O   0  0  0  0  0  0  0  0  0  0  0  0
   -6.0626  -11.2570   12.0236 N   0  0  0  0  0  0  0  0  0  0  0  0
   -7.2904  -11.6654   11.8985 C   0  0  0  0  0  0  0  0  0  0  0  0
   -8.5057  -10.8259   11.5976 C   0  0  0  0  0  0  0  0  0  0  0  0
   -5.2571  -14.6770   12.6401 C   0  0  0  0  0  0  0  0  0  0  0  0
   -9.1408  -16.3191   11.9619 C   0  0  0  0  0  0  0  0  0  0  0  0
  -10.3566  -16.2374   12.4863 N   0  0  0  0  0  0  0  0  0  0  0  0
  -11.1952  -17.1716   12.3695 N   0  0  0  0  0  0  0  0  0  0  0  0
  -10.9191  -18.2868   11.7220 C   0  0  0  0  0  0  0  0  0  0  0  0
   -9.2387  -17.9413   11.2101 S   0  0  0  0  0  0  0  0  0  0  0  0
  -11.7756  -19.5021   11.4770 C   0  0  0  0  0  0  0  0  0  0  0  0
  -13.0291  -19.3168   12.0695 F   0  0  0  0  0  0  0  0  0  0  0  0
  -11.9345  -19.6901   10.0998 F   0  0  0  0  0  0  0  0  0  0  0  0
  -11.1582  -20.6275   12.0337 F   0  0  0  0  0  0  0  0  0  0  0  0
  1  2  1  0
  1 11  1  0
  2  3  2  0
  2  4  1  0
  4  5  2  0
  4  8  1  0
  5  6  1  0
  5 10  1  0
  6  7  1  0
  7  8  2  0
  8  9  1  0
 11 12  2  0
 11 15  1  0
 12 13  1  0
 13 14  2  0
 14 15  1  0
 14 16  1  0
 16 17  1  0
 16 18  1  0
 16 19  1  0
M  END
>  <Gold.Gold.Protein.RotatedWaterAtoms>  (163) 


>  <Gold.Id.Protein>  (163) 


>  <Gold.PLP.Chemscore.CHOScore>  (163) 
0.0000

>  <Gold.PLP.Chemscore.Hbond>  (163) 
1.4480

>  <Gold.PLP.Chemscore.Internal.Correction>  (163) 
0.0020

>  <Gold.PLP.Chemscore.Metal>  (163) 
0.0000

>  <Gold.PLP.Fitness>  (163) 
50.9569

>  <Gold.PLP.PLP>  (163) 
-47.1831

>  <Gold.PLP.ligand.clash>  (163) 
0.0000

>  <Gold.PLP.ligand.torsion>  (163) 
0.2861

>  <Gold.PLP.part.buried>  (163) 
-8.6179

>  <Gold.PLP.part.hbond>  (163) 
-3.6167

>  <Gold.PLP.part.metal>  (163) 
0.0000

>  <Gold.PLP.part.nonpolar>  (163) 
-35.8690

>  <Gold.PLP.part.repulsive>  (163) 
1.0154

>  <Gold.Protein.RotatedAtoms>  (163) 


>  <Gold.Protein.RotatedTorsions>  (163) 


>  <Gold.Protein.RotatedWaterAtoms>  (163) 


>  <Gold.Version>  (163) 
5.3.0

>  <PLP.Chemscore.CHOScore>  (163) 


>  <PLP.Chemscore.Hbond>  (163) 


>  <PLP.Chemscore.Internal.Correction>  (163) 


>  <PLP.Chemscore.Metal>  (163) 


>  <PLP.Fitness>  (163) 


>  <PLP.PLP>  (163) 


>  <PLP.ligand.clash>  (163) 


>  <PLP.ligand.torsion>  (163) 


>  <PLP.part.buried>  (163) 


>  <PLP.part.hbond>  (163) 


>  <PLP.part.metal>  (163) 


>  <PLP.part.nonpolar>  (163) 


>  <PLP.part.repulsive>  (163) 


>  <Version>  (163) 


$$$$
3163|Compound_1939|Compounds_3D_F|sdf|565|dock4|1
     RDKit          3D

 19 20  0  0  0  0  0  0  0  0999 V2000
   -8.6483  -16.6876   11.6953 N   0  0  0  0  0  0  0  0  0  0  0  0
   -8.6327  -15.3583   11.9186 C   0  0  0  0  0  0  0  0  0  0  0  0
   -9.6742  -14.7305   11.9234 O   0  0  0  0  0  0  0  0  0  0  0  0
   -7.3531  -14.6667   12.1569 C   0  0  0  0  0  0  0  0  0  0  0  0
   -6.1386  -15.2082   12.5016 C   0  0  0  0  0  0  0  0  0  0  0  0
   -5.2877  -14.1844   12.6053 O   0  0  0  0  0  0  0  0  0  0  0  0
   -5.8000  -13.1156   12.3768 N   0  0  0  0  0  0  0  0  0  0  0  0
   -7.0603  -13.2275   12.0782 C   0  0  0  0  0  0  0  0  0  0  0  0
   -8.0196  -12.1164   11.7357 C   0  0  0  0  0  0  0  0  0  0  0  0
   -5.8285  -16.6661   12.7209 C   0  0  0  0  0  0  0  0  0  0  0  0
   -9.8538  -17.3396   11.4656 C   0  0  0  0  0  0  0  0  0  0  0  0
  -10.9544  -17.3835   12.2049 N   0  0  0  0  0  0  0  0  0  0  0  0
  -11.9738  -18.0308   11.8421 N   0  0  0  0  0  0  0  0  0  0  0  0
  -12.0117  -18.7046   10.7090 C   0  0  0  0  0  0  0  0  0  0  0  0
  -10.3711  -18.3541   10.0837 S   0  0  0  0  0  0  0  0  0  0  0  0
  -13.1212  -19.5286   10.1088 C   0  0  0  0  0  0  0  0  0  0  0  0
  -14.2020  -19.5730   10.9957 F   0  0  0  0  0  0  0  0  0  0  0  0
  -13.5316  -18.9496    8.9030 F   0  0  0  0  0  0  0  0  0  0  0  0
  -12.6602  -20.8278    9.8697 F   0  0  0  0  0  0  0  0  0  0  0  0
  1  2  1  0
  1 11  1  0
  2  3  2  0
  2  4  1  0
  4  5  2  0
  4  8  1  0
  5  6  1  0
  5 10  1  0
  6  7  1  0
  7  8  2  0
  8  9  1  0
 11 12  2  0
 11 15  1  0
 12 13  1  0
 13 14  2  0
 14 15  1  0
 14 16  1  0
 16 17  1  0
 16 18  1  0
 16 19  1  0
M  END
>  <Gold.Gold.Protein.RotatedWaterAtoms>  (164) 


>  <Gold.Id.Protein>  (164) 


>  <Gold.PLP.Chemscore.CHOScore>  (164) 
0.0000

>  <Gold.PLP.Chemscore.Hbond>  (164) 
0.8329

>  <Gold.PLP.Chemscore.Internal.Correction>  (164) 
0.0020

>  <Gold.PLP.Chemscore.Metal>  (164) 
0.0000

>  <Gold.PLP.Fitness>  (164) 
46.7174

>  <Gold.PLP.PLP>  (164) 
-45.5754

>  <Gold.PLP.ligand.clash>  (164) 
0.0000

>  <Gold.PLP.ligand.torsion>  (164) 
0.6794

>  <Gold.PLP.part.buried>  (164) 
-7.5758

>  <Gold.PLP.part.hbond>  (164) 
-3.4793

>  <Gold.PLP.part.metal>  (164) 
0.0000

>  <Gold.PLP.part.nonpolar>  (164) 
-35.4181

>  <Gold.PLP.part.repulsive>  (164) 
0.7389

>  <Gold.Protein.RotatedAtoms>  (164) 


>  <Gold.Protein.RotatedTorsions>  (164) 


>  <Gold.Protein.RotatedWaterAtoms>  (164) 


>  <Gold.Version>  (164) 
5.3.0

>  <PLP.Chemscore.CHOScore>  (164) 


>  <PLP.Chemscore.Hbond>  (164) 


>  <PLP.Chemscore.Internal.Correction>  (164) 


>  <PLP.Chemscore.Metal>  (164) 


>  <PLP.Fitness>  (164) 


>  <PLP.PLP>  (164) 


>  <PLP.ligand.clash>  (164) 


>  <PLP.ligand.torsion>  (164) 


>  <PLP.part.buried>  (164) 


>  <PLP.part.hbond>  (164) 


>  <PLP.part.metal>  (164) 


>  <PLP.part.nonpolar>  (164) 


>  <PLP.part.repulsive>  (164) 


>  <Version>  (164) 


$$$$
3164|Compound_1939|Compounds_3D_F|sdf|565|dock5|1
     RDKit          3D

 19 20  0  0  0  0  0  0  0  0999 V2000
   -8.1109  -15.4272   12.1097 N   0  0  0  0  0  0  0  0  0  0  0  0
   -8.3745  -14.1055   12.0819 C   0  0  0  0  0  0  0  0  0  0  0  0
   -9.5240  -13.7166   12.0021 O   0  0  0  0  0  0  0  0  0  0  0  0
   -7.2692  -13.1327   12.1484 C   0  0  0  0  0  0  0  0  0  0  0  0
   -5.9482  -13.3573   12.4511 C   0  0  0  0  0  0  0  0  0  0  0  0
   -5.3413  -12.1699   12.3836 O   0  0  0  0  0  0  0  0  0  0  0  0
   -6.0892  -11.2699   12.0880 N   0  0  0  0  0  0  0  0  0  0  0  0
   -7.3074  -11.6834   11.9010 C   0  0  0  0  0  0  0  0  0  0  0  0
   -8.5061  -10.8514   11.5226 C   0  0  0  0  0  0  0  0  0  0  0  0
   -5.3114  -14.6791   12.7931 C   0  0  0  0  0  0  0  0  0  0  0  0
   -9.1520  -16.3452   12.0420 C   0  0  0  0  0  0  0  0  0  0  0  0
  -10.3949  -16.2607   12.4979 N   0  0  0  0  0  0  0  0  0  0  0  0
  -11.2235  -17.1990   12.3477 N   0  0  0  0  0  0  0  0  0  0  0  0
  -10.9095  -18.3216   11.7309 C   0  0  0  0  0  0  0  0  0  0  0  0
   -9.2045  -17.9773   11.3072 S   0  0  0  0  0  0  0  0  0  0  0  0
  -11.7482  -19.5427   11.4554 C   0  0  0  0  0  0  0  0  0  0  0  0
  -13.0249  -19.3644   11.9984 F   0  0  0  0  0  0  0  0  0  0  0  0
  -11.8523  -19.7343   10.0734 F   0  0  0  0  0  0  0  0  0  0  0  0
  -11.1458  -20.6632   12.0379 F   0  0  0  0  0  0  0  0  0  0  0  0
  1  2  1  0
  1 11  1  0
  2  3  2  0
  2  4  1  0
  4  5  2  0
  4  8  1  0
  5  6  1  0
  5 10  1  0
  6  7  1  0
  7  8  2  0
  8  9  1  0
 11 12  2  0
 11 15  1  0
 12 13  1  0
 13 14  2  0
 14 15  1  0
 14 16  1  0
 16 17  1  0
 16 18  1  0
 16 19  1  0
M  END
>  <Gold.Gold.Protein.RotatedWaterAtoms>  (165) 


>  <Gold.Id.Protein>  (165) 


>  <Gold.PLP.Chemscore.CHOScore>  (165) 
0.0000

>  <Gold.PLP.Chemscore.Hbond>  (165) 
2.0000

>  <Gold.PLP.Chemscore.Internal.Correction>  (165) 
0.0020

>  <Gold.PLP.Chemscore.Metal>  (165) 
0.0000

>  <Gold.PLP.Fitness>  (165) 
51.9694

>  <Gold.PLP.PLP>  (165) 
-47.2881

>  <Gold.PLP.ligand.clash>  (165) 
0.7567

>  <Gold.PLP.ligand.torsion>  (165) 
0.2820

>  <Gold.PLP.part.buried>  (165) 
-9.6654

>  <Gold.PLP.part.hbond>  (165) 
-3.6483

>  <Gold.PLP.part.metal>  (165) 
0.0000

>  <Gold.PLP.part.nonpolar>  (165) 
-35.6600

>  <Gold.PLP.part.repulsive>  (165) 
1.0261

>  <Gold.Protein.RotatedAtoms>  (165) 


>  <Gold.Protein.RotatedTorsions>  (165) 


>  <Gold.Protein.RotatedWaterAtoms>  (165) 


>  <Gold.Version>  (165) 
5.3.0

>  <PLP.Chemscore.CHOScore>  (165) 


>  <PLP.Chemscore.Hbond>  (165) 


>  <PLP.Chemscore.Internal.Correction>  (165) 


>  <PLP.Chemscore.Metal>  (165) 


>  <PLP.Fitness>  (165) 


>  <PLP.PLP>  (165) 


>  <PLP.ligand.clash>  (165) 


>  <PLP.ligand.torsion>  (165) 


>  <PLP.part.buried>  (165) 


>  <PLP.part.hbond>  (165) 


>  <PLP.part.metal>  (165) 


>  <PLP.part.nonpolar>  (165) 


>  <PLP.part.repulsive>  (165) 


>  <Version>  (165) 


$$$$
3165|Compound_1939|Compounds_3D_F|sdf|565|dock6|1
     RDKit          3D

 19 20  0  0  0  0  0  0  0  0999 V2000
   -8.4706  -16.2801   11.5877 N   0  0  0  0  0  0  0  0  0  0  0  0
   -8.5367  -14.9764   11.9241 C   0  0  0  0  0  0  0  0  0  0  0  0
   -9.6171  -14.4527   12.1178 O   0  0  0  0  0  0  0  0  0  0  0  0
   -7.2994  -14.1866   12.0571 C   0  0  0  0  0  0  0  0  0  0  0  0
   -7.1313  -12.8298   11.9231 C   0  0  0  0  0  0  0  0  0  0  0  0
   -5.8345  -12.5905   12.1329 O   0  0  0  0  0  0  0  0  0  0  0  0
   -5.1995  -13.5887   12.3718 N   0  0  0  0  0  0  0  0  0  0  0  0
   -5.9416  -14.6561   12.3719 C   0  0  0  0  0  0  0  0  0  0  0  0
   -5.5008  -16.0745   12.6286 C   0  0  0  0  0  0  0  0  0  0  0  0
   -8.1968  -11.8145   11.6016 C   0  0  0  0  0  0  0  0  0  0  0  0
   -9.6370  -17.0242   11.4572 C   0  0  0  0  0  0  0  0  0  0  0  0
  -10.7412  -17.0156   12.1924 N   0  0  0  0  0  0  0  0  0  0  0  0
  -11.7205  -17.7650   11.9300 N   0  0  0  0  0  0  0  0  0  0  0  0
  -11.7106  -18.6038   10.9123 C   0  0  0  0  0  0  0  0  0  0  0  0
  -10.0848  -18.2631   10.2444 S   0  0  0  0  0  0  0  0  0  0  0  0
  -12.7681  -19.5685   10.4419 C   0  0  0  0  0  0  0  0  0  0  0  0
  -13.8994  -18.8565   10.0297 F   0  0  0  0  0  0  0  0  0  0  0  0
  -12.2720  -20.3168    9.3689 F   0  0  0  0  0  0  0  0  0  0  0  0
  -13.1144  -20.4283   11.4900 F   0  0  0  0  0  0  0  0  0  0  0  0
  1  2  1  0
  1 11  1  0
  2  3  2  0
  2  4  1  0
  4  5  2  0
  4  8  1  0
  5  6  1  0
  5 10  1  0
  6  7  1  0
  7  8  2  0
  8  9  1  0
 11 12  2  0
 11 15  1  0
 12 13  1  0
 13 14  2  0
 14 15  1  0
 14 16  1  0
 16 17  1  0
 16 18  1  0
 16 19  1  0
M  END
>  <Gold.Gold.Protein.RotatedWaterAtoms>  (166) 


>  <Gold.Id.Protein>  (166) 


>  <Gold.PLP.Chemscore.CHOScore>  (166) 
0.0000

>  <Gold.PLP.Chemscore.Hbond>  (166) 
0.8960

>  <Gold.PLP.Chemscore.Internal.Correction>  (166) 
0.0007

>  <Gold.PLP.Chemscore.Metal>  (166) 
0.0000

>  <Gold.PLP.Fitness>  (166) 
46.1316

>  <Gold.PLP.PLP>  (166) 
-44.7198

>  <Gold.PLP.ligand.clash>  (166) 
0.0000

>  <Gold.PLP.ligand.torsion>  (166) 
0.6384

>  <Gold.PLP.part.buried>  (166) 
-7.8662

>  <Gold.PLP.part.hbond>  (166) 
-3.6072

>  <Gold.PLP.part.metal>  (166) 
0.0000

>  <Gold.PLP.part.nonpolar>  (166) 
-33.3582

>  <Gold.PLP.part.repulsive>  (166) 
0.7990

>  <Gold.Protein.RotatedAtoms>  (166) 


>  <Gold.Protein.RotatedTorsions>  (166) 


>  <Gold.Protein.RotatedWaterAtoms>  (166) 


>  <Gold.Version>  (166) 
5.3.0

>  <PLP.Chemscore.CHOScore>  (166) 


>  <PLP.Chemscore.Hbond>  (166) 


>  <PLP.Chemscore.Internal.Correction>  (166) 


>  <PLP.Chemscore.Metal>  (166) 


>  <PLP.Fitness>  (166) 


>  <PLP.PLP>  (166) 


>  <PLP.ligand.clash>  (166) 


>  <PLP.ligand.torsion>  (166) 


>  <PLP.part.buried>  (166) 


>  <PLP.part.hbond>  (166) 


>  <PLP.part.metal>  (166) 


>  <PLP.part.nonpolar>  (166) 


>  <PLP.part.repulsive>  (166) 


>  <Version>  (166) 


$$$$
3166|Compound_1939|Compounds_3D_F|sdf|565|dock7|1
     RDKit          3D

 19 20  0  0  0  0  0  0  0  0999 V2000
   -8.1633  -15.6045   11.9595 N   0  0  0  0  0  0  0  0  0  0  0  0
   -8.4162  -14.2864   12.0855 C   0  0  0  0  0  0  0  0  0  0  0  0
   -9.5613  -13.8966   12.2113 O   0  0  0  0  0  0  0  0  0  0  0  0
   -7.3046  -13.3187   12.0707 C   0  0  0  0  0  0  0  0  0  0  0  0
   -5.9629  -13.5533   12.2496 C   0  0  0  0  0  0  0  0  0  0  0  0
   -5.3586  -12.3669   12.1501 O   0  0  0  0  0  0  0  0  0  0  0  0
   -6.1255  -11.4589   11.9395 N   0  0  0  0  0  0  0  0  0  0  0  0
   -7.3576  -11.8648   11.8548 C   0  0  0  0  0  0  0  0  0  0  0  0
   -8.5812  -11.0218   11.6009 C   0  0  0  0  0  0  0  0  0  0  0  0
   -5.3046  -14.8834   12.5085 C   0  0  0  0  0  0  0  0  0  0  0  0
   -9.2112  -16.5172   11.9683 C   0  0  0  0  0  0  0  0  0  0  0  0
  -10.4473  -16.3925   12.4332 N   0  0  0  0  0  0  0  0  0  0  0  0
  -11.2840  -17.3327   12.3583 N   0  0  0  0  0  0  0  0  0  0  0  0
  -10.9854  -18.4972   11.8160 C   0  0  0  0  0  0  0  0  0  0  0  0
   -9.2839  -18.1954   11.3480 S   0  0  0  0  0  0  0  0  0  0  0  0
  -11.8356  -19.7282   11.6357 C   0  0  0  0  0  0  0  0  0  0  0  0
  -13.1350  -19.4676   12.0833 F   0  0  0  0  0  0  0  0  0  0  0  0
  -11.8705  -20.0759   10.2810 F   0  0  0  0  0  0  0  0  0  0  0  0
  -11.2905  -20.7837   12.3748 F   0  0  0  0  0  0  0  0  0  0  0  0
  1  2  1  0
  1 11  1  0
  2  3  2  0
  2  4  1  0
  4  5  2  0
  4  8  1  0
  5  6  1  0
  5 10  1  0
  6  7  1  0
  7  8  2  0
  8  9  1  0
 11 12  2  0
 11 15  1  0
 12 13  1  0
 13 14  2  0
 14 15  1  0
 14 16  1  0
 16 17  1  0
 16 18  1  0
 16 19  1  0
M  END
>  <Gold.Gold.Protein.RotatedWaterAtoms>  (167) 


>  <Gold.Id.Protein>  (167) 


>  <Gold.PLP.Chemscore.CHOScore>  (167) 
0.0000

>  <Gold.PLP.Chemscore.Hbond>  (167) 
1.6164

>  <Gold.PLP.Chemscore.Internal.Correction>  (167) 
0.0007

>  <Gold.PLP.Chemscore.Metal>  (167) 
0.0000

>  <Gold.PLP.Fitness>  (167) 
50.3512

>  <Gold.PLP.PLP>  (167) 
-46.0537

>  <Gold.PLP.ligand.clash>  (167) 
0.0379

>  <Gold.PLP.ligand.torsion>  (167) 
0.2572

>  <Gold.PLP.part.buried>  (167) 
-8.1709

>  <Gold.PLP.part.hbond>  (167) 
-4.4092

>  <Gold.PLP.part.metal>  (167) 
0.0000

>  <Gold.PLP.part.nonpolar>  (167) 
-33.9796

>  <Gold.PLP.part.repulsive>  (167) 
0.9632

>  <Gold.Protein.RotatedAtoms>  (167) 


>  <Gold.Protein.RotatedTorsions>  (167) 


>  <Gold.Protein.RotatedWaterAtoms>  (167) 


>  <Gold.Version>  (167) 
5.3.0

>  <PLP.Chemscore.CHOScore>  (167) 


>  <PLP.Chemscore.Hbond>  (167) 


>  <PLP.Chemscore.Internal.Correction>  (167) 


>  <PLP.Chemscore.Metal>  (167) 


>  <PLP.Fitness>  (167) 


>  <PLP.PLP>  (167) 


>  <PLP.ligand.clash>  (167) 


>  <PLP.ligand.torsion>  (167) 


>  <PLP.part.buried>  (167) 


>  <PLP.part.hbond>  (167) 


>  <PLP.part.metal>  (167) 


>  <PLP.part.nonpolar>  (167) 


>  <PLP.part.repulsive>  (167) 


>  <Version>  (167) 


$$$$
3167|Compound_1942|Compounds_3D_F|sdf|566|dock1|1
     RDKit          3D

 21 22  0  0  0  0  0  0  0  0999 V2000
  -10.0320  -12.9852   11.1027 O   0  0  0  0  0  0  0  0  0  0  0  0
   -9.2640  -13.7949   11.8576 C   0  0  0  0  0  0  0  0  0  0  0  0
   -9.7535  -14.7656   12.3982 O   0  0  0  0  0  0  0  0  0  0  0  0
   -7.8240  -13.5000   12.0286 C   0  0  0  0  0  0  0  0  0  0  0  0
   -7.4020  -12.2431   12.1879 N   0  0  0  0  0  0  0  0  0  0  0  0
   -6.1207  -11.9737   12.3394 C   0  0  0  0  0  0  0  0  0  0  0  0
   -5.7363  -10.6840   12.4997 O   0  0  0  0  0  0  0  0  0  0  0  0
   -5.1970  -12.9235   12.3412 N   0  0  0  0  0  0  0  0  0  0  0  0
   -5.5277  -14.1964   12.1897 C   0  0  0  0  0  0  0  0  0  0  0  0
   -4.5746  -15.1599   12.1926 O   0  0  0  0  0  0  0  0  0  0  0  0
   -6.8824  -14.5339   12.0299 C   0  0  0  0  0  0  0  0  0  0  0  0
   -7.2757  -15.8618   11.8655 N   0  0  0  0  0  0  0  0  0  0  0  0
   -7.0557  -16.4902   10.6939 C   0  0  0  0  0  0  0  0  0  0  0  0
   -6.5632  -15.8834    9.7619 O   0  0  0  0  0  0  0  0  0  0  0  0
   -7.4126  -17.9115   10.5414 C   0  0  0  0  0  0  0  0  0  0  0  0
   -6.6258  -18.9500   10.1059 C   0  0  0  0  0  0  0  0  0  0  0  0
   -7.3926  -20.0424   10.1428 O   0  0  0  0  0  0  0  0  0  0  0  0
   -8.5143  -19.8224   10.5301 N   0  0  0  0  0  0  0  0  0  0  0  0
   -8.6982  -18.5700   10.8238 C   0  0  0  0  0  0  0  0  0  0  0  0
   -9.9611  -17.9275   11.3354 C   0  0  0  0  0  0  0  0  0  0  0  0
   -5.1844  -18.8718    9.6744 C   0  0  0  0  0  0  0  0  0  0  0  0
  1  2  1  0
  2  3  2  0
  2  4  1  0
  4  5  2  0
  4 11  1  0
  5  6  1  0
  6  7  1  0
  6  8  2  0
  8  9  1  0
  9 10  1  0
  9 11  2  0
 11 12  1  0
 12 13  1  0
 13 14  2  0
 13 15  1  0
 15 16  2  0
 15 19  1  0
 16 17  1  0
 16 21  1  0
 17 18  1  0
 18 19  2  0
 19 20  1  0
M  END
>  <Gold.Gold.Protein.RotatedWaterAtoms>  (168) 


>  <Gold.Id.Protein>  (168) 


>  <Gold.PLP.Chemscore.CHOScore>  (168) 
0.0000

>  <Gold.PLP.Chemscore.Hbond>  (168) 
2.2094

>  <Gold.PLP.Chemscore.Internal.Correction>  (168) 
1.1650

>  <Gold.PLP.Chemscore.Metal>  (168) 
0.0000

>  <Gold.PLP.Fitness>  (168) 
43.1962

>  <Gold.PLP.PLP>  (168) 
-39.9193

>  <Gold.PLP.ligand.clash>  (168) 
0.0000

>  <Gold.PLP.ligand.torsion>  (168) 
2.2581

>  <Gold.PLP.part.buried>  (168) 
-6.6132

>  <Gold.PLP.part.hbond>  (168) 
-6.4693

>  <Gold.PLP.part.metal>  (168) 
0.0000

>  <Gold.PLP.part.nonpolar>  (168) 
-27.4075

>  <Gold.PLP.part.repulsive>  (168) 
1.2051

>  <Gold.Protein.RotatedAtoms>  (168) 


>  <Gold.Protein.RotatedTorsions>  (168) 


>  <Gold.Protein.RotatedWaterAtoms>  (168) 


>  <Gold.Version>  (168) 
5.3.0

>  <PLP.Chemscore.CHOScore>  (168) 


>  <PLP.Chemscore.Hbond>  (168) 


>  <PLP.Chemscore.Internal.Correction>  (168) 


>  <PLP.Chemscore.Metal>  (168) 


>  <PLP.Fitness>  (168) 


>  <PLP.PLP>  (168) 


>  <PLP.ligand.clash>  (168) 


>  <PLP.ligand.torsion>  (168) 


>  <PLP.part.buried>  (168) 


>  <PLP.part.hbond>  (168) 


>  <PLP.part.metal>  (168) 


>  <PLP.part.nonpolar>  (168) 


>  <PLP.part.repulsive>  (168) 


>  <Version>  (168) 


$$$$
3168|Compound_1942|Compounds_3D_F|sdf|566|dock2|1
     RDKit          3D

 21 22  0  0  0  0  0  0  0  0999 V2000
   -6.3924  -20.2351    9.4319 O   0  0  0  0  0  0  0  0  0  0  0  0
   -6.8345  -19.2240   10.2048 C   0  0  0  0  0  0  0  0  0  0  0  0
   -6.0526  -18.3986   10.6308 O   0  0  0  0  0  0  0  0  0  0  0  0
   -8.2731  -19.1205   10.5356 C   0  0  0  0  0  0  0  0  0  0  0  0
   -9.1385  -20.0389   10.0986 N   0  0  0  0  0  0  0  0  0  0  0  0
  -10.4214  -19.9518   10.3887 C   0  0  0  0  0  0  0  0  0  0  0  0
  -11.2646  -20.9066    9.9260 O   0  0  0  0  0  0  0  0  0  0  0  0
  -10.9123  -18.9614   11.1191 N   0  0  0  0  0  0  0  0  0  0  0  0
  -10.1249  -18.0086   11.5930 C   0  0  0  0  0  0  0  0  0  0  0  0
  -10.6378  -16.9997   12.3387 O   0  0  0  0  0  0  0  0  0  0  0  0
   -8.7485  -18.0610   11.3146 C   0  0  0  0  0  0  0  0  0  0  0  0
   -7.8826  -17.0776   11.7922 N   0  0  0  0  0  0  0  0  0  0  0  0
   -8.0494  -15.7934   11.4195 C   0  0  0  0  0  0  0  0  0  0  0  0
   -8.9216  -15.4998   10.6241 O   0  0  0  0  0  0  0  0  0  0  0  0
   -7.1750  -14.7453   11.9741 C   0  0  0  0  0  0  0  0  0  0  0  0
   -5.8901  -14.8629   12.4455 C   0  0  0  0  0  0  0  0  0  0  0  0
   -5.5218  -13.6414   12.8390 O   0  0  0  0  0  0  0  0  0  0  0  0
   -6.3830  -12.8112   12.6792 N   0  0  0  0  0  0  0  0  0  0  0  0
   -7.4606  -13.3127   12.1541 C   0  0  0  0  0  0  0  0  0  0  0  0
   -8.7341  -12.5846   11.8115 C   0  0  0  0  0  0  0  0  0  0  0  0
   -5.0614  -16.1197   12.5048 C   0  0  0  0  0  0  0  0  0  0  0  0
  1  2  1  0
  2  3  2  0
  2  4  1  0
  4  5  2  0
  4 11  1  0
  5  6  1  0
  6  7  1  0
  6  8  2  0
  8  9  1  0
  9 10  1  0
  9 11  2  0
 11 12  1  0
 12 13  1  0
 13 14  2  0
 13 15  1  0
 15 16  2  0
 15 19  1  0
 16 17  1  0
 16 21  1  0
 17 18  1  0
 18 19  2  0
 19 20  1  0
M  END
>  <Gold.Gold.Protein.RotatedWaterAtoms>  (169) 


>  <Gold.Id.Protein>  (169) 


>  <Gold.PLP.Chemscore.CHOScore>  (169) 
0.0000

>  <Gold.PLP.Chemscore.Hbond>  (169) 
1.5983

>  <Gold.PLP.Chemscore.Internal.Correction>  (169) 
1.1594

>  <Gold.PLP.Chemscore.Metal>  (169) 
0.0000

>  <Gold.PLP.Fitness>  (169) 
43.3527

>  <Gold.PLP.PLP>  (169) 
-39.1601

>  <Gold.PLP.ligand.clash>  (169) 
0.0005

>  <Gold.PLP.ligand.torsion>  (169) 
0.8806

>  <Gold.PLP.part.buried>  (169) 
-10.6180

>  <Gold.PLP.part.hbond>  (169) 
-2.8682

>  <Gold.PLP.part.metal>  (169) 
0.0000

>  <Gold.PLP.part.nonpolar>  (169) 
-27.0866

>  <Gold.PLP.part.repulsive>  (169) 
0.6359

>  <Gold.Protein.RotatedAtoms>  (169) 


>  <Gold.Protein.RotatedTorsions>  (169) 


>  <Gold.Protein.RotatedWaterAtoms>  (169) 


>  <Gold.Version>  (169) 
5.3.0

>  <PLP.Chemscore.CHOScore>  (169) 


>  <PLP.Chemscore.Hbond>  (169) 


>  <PLP.Chemscore.Internal.Correction>  (169) 


>  <PLP.Chemscore.Metal>  (169) 


>  <PLP.Fitness>  (169) 


>  <PLP.PLP>  (169) 


>  <PLP.ligand.clash>  (169) 


>  <PLP.ligand.torsion>  (169) 


>  <PLP.part.buried>  (169) 


>  <PLP.part.hbond>  (169) 


>  <PLP.part.metal>  (169) 


>  <PLP.part.nonpolar>  (169) 


>  <PLP.part.repulsive>  (169) 


>  <Version>  (169) 


$$$$
3169|Compound_1942|Compounds_3D_F|sdf|566|dock3|1
     RDKit          3D

 21 22  0  0  0  0  0  0  0  0999 V2000
   -6.8889  -19.8258    8.8415 O   0  0  0  0  0  0  0  0  0  0  0  0
   -7.1862  -19.0745    9.9196 C   0  0  0  0  0  0  0  0  0  0  0  0
   -6.3055  -18.4798   10.5069 O   0  0  0  0  0  0  0  0  0  0  0  0
   -8.5863  -18.9755   10.3886 C   0  0  0  0  0  0  0  0  0  0  0  0
   -9.5004  -19.8641    9.9913 N   0  0  0  0  0  0  0  0  0  0  0  0
  -10.7493  -19.7808   10.4044 C   0  0  0  0  0  0  0  0  0  0  0  0
  -11.6442  -20.7047    9.9776 O   0  0  0  0  0  0  0  0  0  0  0  0
  -11.1571  -18.8233   11.2243 N   0  0  0  0  0  0  0  0  0  0  0  0
  -10.3168  -17.9014   11.6674 C   0  0  0  0  0  0  0  0  0  0  0  0
  -10.7448  -16.9261   12.5055 O   0  0  0  0  0  0  0  0  0  0  0  0
   -8.9732  -17.9515   11.2588 C   0  0  0  0  0  0  0  0  0  0  0  0
   -8.0539  -16.9999   11.6996 N   0  0  0  0  0  0  0  0  0  0  0  0
   -8.2057  -15.7057   11.3558 C   0  0  0  0  0  0  0  0  0  0  0  0
   -9.1136  -15.3757   10.6167 O   0  0  0  0  0  0  0  0  0  0  0  0
   -7.2717  -14.6909   11.8740 C   0  0  0  0  0  0  0  0  0  0  0  0
   -7.4529  -13.3331   11.9762 C   0  0  0  0  0  0  0  0  0  0  0  0
   -6.3293  -12.8437   12.5061 O   0  0  0  0  0  0  0  0  0  0  0  0
   -5.5035  -13.6932   12.7362 N   0  0  0  0  0  0  0  0  0  0  0  0
   -5.9167  -14.8827   12.4157 C   0  0  0  0  0  0  0  0  0  0  0  0
   -5.1652  -16.1804   12.5593 C   0  0  0  0  0  0  0  0  0  0  0  0
   -8.6764  -12.5522   11.5723 C   0  0  0  0  0  0  0  0  0  0  0  0
  1  2  1  0
  2  3  2  0
  2  4  1  0
  4  5  2  0
  4 11  1  0
  5  6  1  0
  6  7  1  0
  6  8  2  0
  8  9  1  0
  9 10  1  0
  9 11  2  0
 11 12  1  0
 12 13  1  0
 13 14  2  0
 13 15  1  0
 15 16  2  0
 15 19  1  0
 16 17  1  0
 16 21  1  0
 17 18  1  0
 18 19  2  0
 19 20  1  0
M  END
>  <Gold.Gold.Protein.RotatedWaterAtoms>  (170) 


>  <Gold.Id.Protein>  (170) 


>  <Gold.PLP.Chemscore.CHOScore>  (170) 
0.0000

>  <Gold.PLP.Chemscore.Hbond>  (170) 
1.8160

>  <Gold.PLP.Chemscore.Internal.Correction>  (170) 
1.1594

>  <Gold.PLP.Chemscore.Metal>  (170) 
0.0000

>  <Gold.PLP.Fitness>  (170) 
44.0114

>  <Gold.PLP.PLP>  (170) 
-39.2560

>  <Gold.PLP.ligand.clash>  (170) 
0.0000

>  <Gold.PLP.ligand.torsion>  (170) 
0.9260

>  <Gold.PLP.part.buried>  (170) 
-9.5532

>  <Gold.PLP.part.hbond>  (170) 
-3.0000

>  <Gold.PLP.part.metal>  (170) 
0.0000

>  <Gold.PLP.part.nonpolar>  (170) 
-27.5301

>  <Gold.PLP.part.repulsive>  (170) 
0.6282

>  <Gold.Protein.RotatedAtoms>  (170) 


>  <Gold.Protein.RotatedTorsions>  (170) 


>  <Gold.Protein.RotatedWaterAtoms>  (170) 


>  <Gold.Version>  (170) 
5.3.0

>  <PLP.Chemscore.CHOScore>  (170) 


>  <PLP.Chemscore.Hbond>  (170) 


>  <PLP.Chemscore.Internal.Correction>  (170) 


>  <PLP.Chemscore.Metal>  (170) 


>  <PLP.Fitness>  (170) 


>  <PLP.PLP>  (170) 


>  <PLP.ligand.clash>  (170) 


>  <PLP.ligand.torsion>  (170) 


>  <PLP.part.buried>  (170) 


>  <PLP.part.hbond>  (170) 


>  <PLP.part.metal>  (170) 


>  <PLP.part.nonpolar>  (170) 


>  <PLP.part.repulsive>  (170) 


>  <Version>  (170) 


$$$$
3170|Compound_1942|Compounds_3D_F|sdf|566|dock4|1
     RDKit          3D

 21 22  0  0  0  0  0  0  0  0999 V2000
   -6.8982  -19.1855   10.0033 O   0  0  0  0  0  0  0  0  0  0  0  0
   -7.1827  -18.1084   10.7611 C   0  0  0  0  0  0  0  0  0  0  0  0
   -6.3117  -17.3049   11.0256 O   0  0  0  0  0  0  0  0  0  0  0  0
   -8.5567  -17.9057   11.2719 C   0  0  0  0  0  0  0  0  0  0  0  0
   -9.4950  -18.8374   11.0861 N   0  0  0  0  0  0  0  0  0  0  0  0
  -10.7210  -18.6624   11.5376 C   0  0  0  0  0  0  0  0  0  0  0  0
  -11.6418  -19.6345   11.3283 O   0  0  0  0  0  0  0  0  0  0  0  0
  -11.0811  -17.5672   12.1903 N   0  0  0  0  0  0  0  0  0  0  0  0
  -10.2139  -16.5933   12.4185 C   0  0  0  0  0  0  0  0  0  0  0  0
  -10.5932  -15.4769   13.0868 O   0  0  0  0  0  0  0  0  0  0  0  0
   -8.8930  -16.7363   11.9609 C   0  0  0  0  0  0  0  0  0  0  0  0
   -7.9469  -15.7348   12.1778 N   0  0  0  0  0  0  0  0  0  0  0  0
   -8.1381  -14.5038   11.6638 C   0  0  0  0  0  0  0  0  0  0  0  0
   -9.1088  -14.2808   10.9655 O   0  0  0  0  0  0  0  0  0  0  0  0
   -7.1712  -13.4286   11.9465 C   0  0  0  0  0  0  0  0  0  0  0  0
   -7.3686  -12.0696   11.9154 C   0  0  0  0  0  0  0  0  0  0  0  0
   -6.2006  -11.5135   12.2461 O   0  0  0  0  0  0  0  0  0  0  0  0
   -5.3349  -12.3242   12.4690 N   0  0  0  0  0  0  0  0  0  0  0  0
   -5.7573  -13.5460   12.3378 C   0  0  0  0  0  0  0  0  0  0  0  0
   -4.9657  -14.8124   12.5351 C   0  0  0  0  0  0  0  0  0  0  0  0
   -8.6484  -11.3502   11.5772 C   0  0  0  0  0  0  0  0  0  0  0  0
  1  2  1  0
  2  3  2  0
  2  4  1  0
  4  5  2  0
  4 11  1  0
  5  6  1  0
  6  7  1  0
  6  8  2  0
  8  9  1  0
  9 10  1  0
  9 11  2  0
 11 12  1  0
 12 13  1  0
 13 14  2  0
 13 15  1  0
 15 16  2  0
 15 19  1  0
 16 17  1  0
 16 21  1  0
 17 18  1  0
 18 19  2  0
 19 20  1  0
M  END
>  <Gold.Gold.Protein.RotatedWaterAtoms>  (171) 


>  <Gold.Id.Protein>  (171) 


>  <Gold.PLP.Chemscore.CHOScore>  (171) 
0.0000

>  <Gold.PLP.Chemscore.Hbond>  (171) 
2.6311

>  <Gold.PLP.Chemscore.Internal.Correction>  (171) 
1.1580

>  <Gold.PLP.Chemscore.Metal>  (171) 
0.0000

>  <Gold.PLP.Fitness>  (171) 
48.6768

>  <Gold.PLP.PLP>  (171) 
-41.2838

>  <Gold.PLP.ligand.clash>  (171) 
0.0014

>  <Gold.PLP.ligand.torsion>  (171) 
0.8284

>  <Gold.PLP.part.buried>  (171) 
-6.4421

>  <Gold.PLP.part.hbond>  (171) 
-6.0969

>  <Gold.PLP.part.metal>  (171) 
0.0000

>  <Gold.PLP.part.nonpolar>  (171) 
-31.2032

>  <Gold.PLP.part.repulsive>  (171) 
0.9083

>  <Gold.Protein.RotatedAtoms>  (171) 


>  <Gold.Protein.RotatedTorsions>  (171) 


>  <Gold.Protein.RotatedWaterAtoms>  (171) 


>  <Gold.Version>  (171) 
5.3.0

>  <PLP.Chemscore.CHOScore>  (171) 


>  <PLP.Chemscore.Hbond>  (171) 


>  <PLP.Chemscore.Internal.Correction>  (171) 


>  <PLP.Chemscore.Metal>  (171) 


>  <PLP.Fitness>  (171) 


>  <PLP.PLP>  (171) 


>  <PLP.ligand.clash>  (171) 


>  <PLP.ligand.torsion>  (171) 


>  <PLP.part.buried>  (171) 


>  <PLP.part.hbond>  (171) 


>  <PLP.part.metal>  (171) 


>  <PLP.part.nonpolar>  (171) 


>  <PLP.part.repulsive>  (171) 


>  <Version>  (171) 


$$$$
3171|Compound_1942|Compounds_3D_F|sdf|566|dock5|1
     RDKit          3D

 21 22  0  0  0  0  0  0  0  0999 V2000
   -7.1217  -17.9783    9.2974 O   0  0  0  0  0  0  0  0  0  0  0  0
   -8.2196  -18.4821    8.7007 C   0  0  0  0  0  0  0  0  0  0  0  0
   -8.1559  -18.8944    7.5605 O   0  0  0  0  0  0  0  0  0  0  0  0
   -9.5034  -18.5314    9.4350 C   0  0  0  0  0  0  0  0  0  0  0  0
  -10.5431  -19.2085    8.9412 N   0  0  0  0  0  0  0  0  0  0  0  0
  -11.6896  -19.2553    9.5897 C   0  0  0  0  0  0  0  0  0  0  0  0
  -12.7185  -19.9554    9.0530 O   0  0  0  0  0  0  0  0  0  0  0  0
  -11.8678  -18.6409   10.7499 N   0  0  0  0  0  0  0  0  0  0  0  0
  -10.8898  -17.9475   11.3114 C   0  0  0  0  0  0  0  0  0  0  0  0
  -11.0830  -17.3224   12.4983 O   0  0  0  0  0  0  0  0  0  0  0  0
   -9.6468  -17.8727   10.6602 C   0  0  0  0  0  0  0  0  0  0  0  0
   -8.5893  -17.1521   11.2146 N   0  0  0  0  0  0  0  0  0  0  0  0
   -8.5472  -15.8111   11.0876 C   0  0  0  0  0  0  0  0  0  0  0  0
   -9.4028  -15.2345   10.4433 O   0  0  0  0  0  0  0  0  0  0  0  0
   -7.4648  -15.0437   11.7280 C   0  0  0  0  0  0  0  0  0  0  0  0
   -6.2605  -15.4983   12.2075 C   0  0  0  0  0  0  0  0  0  0  0  0
   -5.6227  -14.4303   12.6925 O   0  0  0  0  0  0  0  0  0  0  0  0
   -6.2548  -13.4084   12.5806 N   0  0  0  0  0  0  0  0  0  0  0  0
   -7.4045  -13.5996   12.0061 C   0  0  0  0  0  0  0  0  0  0  0  0
   -8.4556  -12.5651   11.6988 C   0  0  0  0  0  0  0  0  0  0  0  0
   -5.7589  -16.9189   12.1882 C   0  0  0  0  0  0  0  0  0  0  0  0
  1  2  1  0
  2  3  2  0
  2  4  1  0
  4  5  2  0
  4 11  1  0
  5  6  1  0
  6  7  1  0
  6  8  2  0
  8  9  1  0
  9 10  1  0
  9 11  2  0
 11 12  1  0
 12 13  1  0
 13 14  2  0
 13 15  1  0
 15 16  2  0
 15 19  1  0
 16 17  1  0
 16 21  1  0
 17 18  1  0
 18 19  2  0
 19 20  1  0
M  END
>  <Gold.Gold.Protein.RotatedWaterAtoms>  (172) 


>  <Gold.Id.Protein>  (172) 


>  <Gold.PLP.Chemscore.CHOScore>  (172) 
0.0000

>  <Gold.PLP.Chemscore.Hbond>  (172) 
2.0000

>  <Gold.PLP.Chemscore.Internal.Correction>  (172) 
1.1580

>  <Gold.PLP.Chemscore.Metal>  (172) 
0.0000

>  <Gold.PLP.Fitness>  (172) 
41.6752

>  <Gold.PLP.PLP>  (172) 
-36.3255

>  <Gold.PLP.ligand.clash>  (172) 
0.0000

>  <Gold.PLP.ligand.torsion>  (172) 
0.9041

>  <Gold.PLP.part.buried>  (172) 
-6.9784

>  <Gold.PLP.part.hbond>  (172) 
-4.6686

>  <Gold.PLP.part.metal>  (172) 
0.0000

>  <Gold.PLP.part.nonpolar>  (172) 
-24.6543

>  <Gold.PLP.part.repulsive>  (172) 
0.5407

>  <Gold.Protein.RotatedAtoms>  (172) 


>  <Gold.Protein.RotatedTorsions>  (172) 


>  <Gold.Protein.RotatedWaterAtoms>  (172) 


>  <Gold.Version>  (172) 
5.3.0

>  <PLP.Chemscore.CHOScore>  (172) 


>  <PLP.Chemscore.Hbond>  (172) 


>  <PLP.Chemscore.Internal.Correction>  (172) 


>  <PLP.Chemscore.Metal>  (172) 


>  <PLP.Fitness>  (172) 


>  <PLP.PLP>  (172) 


>  <PLP.ligand.clash>  (172) 


>  <PLP.ligand.torsion>  (172) 


>  <PLP.part.buried>  (172) 


>  <PLP.part.hbond>  (172) 


>  <PLP.part.metal>  (172) 


>  <PLP.part.nonpolar>  (172) 


>  <PLP.part.repulsive>  (172) 


>  <Version>  (172) 


$$$$
3172|Compound_1942|Compounds_3D_F|sdf|566|dock6|1
     RDKit          3D

 21 22  0  0  0  0  0  0  0  0999 V2000
   -8.0700  -19.2937    7.3831 O   0  0  0  0  0  0  0  0  0  0  0  0
   -8.1394  -18.6231    8.5496 C   0  0  0  0  0  0  0  0  0  0  0  0
   -7.1725  -18.0124    8.9574 O   0  0  0  0  0  0  0  0  0  0  0  0
   -9.3940  -18.6321    9.3343 C   0  0  0  0  0  0  0  0  0  0  0  0
  -10.4544  -19.3254    8.9123 N   0  0  0  0  0  0  0  0  0  0  0  0
  -11.5751  -19.3366    9.6060 C   0  0  0  0  0  0  0  0  0  0  0  0
  -12.6265  -20.0548    9.1418 O   0  0  0  0  0  0  0  0  0  0  0  0
  -11.7060  -18.6691   10.7429 N   0  0  0  0  0  0  0  0  0  0  0  0
  -10.7045  -17.9561   11.2341 C   0  0  0  0  0  0  0  0  0  0  0  0
  -10.8495  -17.2767   12.3978 O   0  0  0  0  0  0  0  0  0  0  0  0
   -9.4874  -17.9177   10.5327 C   0  0  0  0  0  0  0  0  0  0  0  0
   -8.4067  -17.1782   11.0126 N   0  0  0  0  0  0  0  0  0  0  0  0
   -8.5023  -15.8385   11.1234 C   0  0  0  0  0  0  0  0  0  0  0  0
   -9.5115  -15.2687   10.7543 O   0  0  0  0  0  0  0  0  0  0  0  0
   -7.3844  -15.0642   11.6904 C   0  0  0  0  0  0  0  0  0  0  0  0
   -7.3090  -13.7119   11.9201 C   0  0  0  0  0  0  0  0  0  0  0  0
   -6.1017  -13.4874   12.4442 O   0  0  0  0  0  0  0  0  0  0  0  0
   -5.4417  -14.4907   12.5634 N   0  0  0  0  0  0  0  0  0  0  0  0
   -6.0753  -15.5495   12.1561 C   0  0  0  0  0  0  0  0  0  0  0  0
   -5.5732  -16.9698   12.1525 C   0  0  0  0  0  0  0  0  0  0  0  0
   -8.3768  -12.6870   11.6383 C   0  0  0  0  0  0  0  0  0  0  0  0
  1  2  1  0
  2  3  2  0
  2  4  1  0
  4  5  2  0
  4 11  1  0
  5  6  1  0
  6  7  1  0
  6  8  2  0
  8  9  1  0
  9 10  1  0
  9 11  2  0
 11 12  1  0
 12 13  1  0
 13 14  2  0
 13 15  1  0
 15 16  2  0
 15 19  1  0
 16 17  1  0
 16 21  1  0
 17 18  1  0
 18 19  2  0
 19 20  1  0
M  END
>  <Gold.Gold.Protein.RotatedWaterAtoms>  (173) 


>  <Gold.Id.Protein>  (173) 


>  <Gold.PLP.Chemscore.CHOScore>  (173) 
0.0000

>  <Gold.PLP.Chemscore.Hbond>  (173) 
2.8000

>  <Gold.PLP.Chemscore.Internal.Correction>  (173) 
1.1580

>  <Gold.PLP.Chemscore.Metal>  (173) 
0.0000

>  <Gold.PLP.Fitness>  (173) 
43.7816

>  <Gold.PLP.PLP>  (173) 
-35.4355

>  <Gold.PLP.ligand.clash>  (173) 
0.0000

>  <Gold.PLP.ligand.torsion>  (173) 
0.6060

>  <Gold.PLP.part.buried>  (173) 
-7.2235

>  <Gold.PLP.part.hbond>  (173) 
-4.1978

>  <Gold.PLP.part.metal>  (173) 
0.0000

>  <Gold.PLP.part.nonpolar>  (173) 
-24.4206

>  <Gold.PLP.part.repulsive>  (173) 
0.5375

>  <Gold.Protein.RotatedAtoms>  (173) 


>  <Gold.Protein.RotatedTorsions>  (173) 


>  <Gold.Protein.RotatedWaterAtoms>  (173) 


>  <Gold.Version>  (173) 
5.3.0

>  <PLP.Chemscore.CHOScore>  (173) 


>  <PLP.Chemscore.Hbond>  (173) 


>  <PLP.Chemscore.Internal.Correction>  (173) 


>  <PLP.Chemscore.Metal>  (173) 


>  <PLP.Fitness>  (173) 


>  <PLP.PLP>  (173) 


>  <PLP.ligand.clash>  (173) 


>  <PLP.ligand.torsion>  (173) 


>  <PLP.part.buried>  (173) 


>  <PLP.part.hbond>  (173) 


>  <PLP.part.metal>  (173) 


>  <PLP.part.nonpolar>  (173) 


>  <PLP.part.repulsive>  (173) 


>  <Version>  (173) 


$$$$
3173|Compound_1942|Compounds_3D_F|sdf|566|dock7|1
     RDKit          3D

 21 22  0  0  0  0  0  0  0  0999 V2000
   -6.7650  -20.6671    9.1338 O   0  0  0  0  0  0  0  0  0  0  0  0
   -7.2071  -19.6542    9.9045 C   0  0  0  0  0  0  0  0  0  0  0  0
   -6.4322  -18.8044   10.2937 O   0  0  0  0  0  0  0  0  0  0  0  0
   -8.6371  -19.5787   10.2777 C   0  0  0  0  0  0  0  0  0  0  0  0
   -9.5061  -20.4862    9.8257 N   0  0  0  0  0  0  0  0  0  0  0  0
  -10.7813  -20.4238   10.1535 C   0  0  0  0  0  0  0  0  0  0  0  0
  -11.6286  -21.3665    9.6736 O   0  0  0  0  0  0  0  0  0  0  0  0
  -11.2607  -19.4697   10.9378 N   0  0  0  0  0  0  0  0  0  0  0  0
  -10.4689  -18.5300   11.4302 C   0  0  0  0  0  0  0  0  0  0  0  0
  -10.9700  -17.5583   12.2311 O   0  0  0  0  0  0  0  0  0  0  0  0
   -9.1002  -18.5574   11.1131 C   0  0  0  0  0  0  0  0  0  0  0  0
   -8.2301  -17.5865   11.6084 N   0  0  0  0  0  0  0  0  0  0  0  0
   -8.4080  -16.2914   11.2810 C   0  0  0  0  0  0  0  0  0  0  0  0
   -9.2945  -15.9756   10.5104 O   0  0  0  0  0  0  0  0  0  0  0  0
   -7.5283  -15.2584   11.8553 C   0  0  0  0  0  0  0  0  0  0  0  0
   -6.2712  -15.4044   12.3893 C   0  0  0  0  0  0  0  0  0  0  0  0
   -5.8839  -14.1863   12.7752 O   0  0  0  0  0  0  0  0  0  0  0  0
   -6.7104  -13.3342   12.5580 N   0  0  0  0  0  0  0  0  0  0  0  0
   -7.7773  -13.8143   11.9926 C   0  0  0  0  0  0  0  0  0  0  0  0
   -9.0102  -13.0558   11.5753 C   0  0  0  0  0  0  0  0  0  0  0  0
   -5.4856  -16.6840   12.5132 C   0  0  0  0  0  0  0  0  0  0  0  0
  1  2  1  0
  2  3  2  0
  2  4  1  0
  4  5  2  0
  4 11  1  0
  5  6  1  0
  6  7  1  0
  6  8  2  0
  8  9  1  0
  9 10  1  0
  9 11  2  0
 11 12  1  0
 12 13  1  0
 13 14  2  0
 13 15  1  0
 15 16  2  0
 15 19  1  0
 16 17  1  0
 16 21  1  0
 17 18  1  0
 18 19  2  0
 19 20  1  0
M  END
>  <Gold.Gold.Protein.RotatedWaterAtoms>  (174) 


>  <Gold.Id.Protein>  (174) 


>  <Gold.PLP.Chemscore.CHOScore>  (174) 
0.0000

>  <Gold.PLP.Chemscore.Hbond>  (174) 
1.9913

>  <Gold.PLP.Chemscore.Internal.Correction>  (174) 
1.1580

>  <Gold.PLP.Chemscore.Metal>  (174) 
0.0000

>  <Gold.PLP.Fitness>  (174) 
43.6070

>  <Gold.PLP.PLP>  (174) 
-38.0533

>  <Gold.PLP.ligand.clash>  (174) 
0.0000

>  <Gold.PLP.ligand.torsion>  (174) 
0.7891

>  <Gold.PLP.part.buried>  (174) 
-9.3143

>  <Gold.PLP.part.hbond>  (174) 
-3.0000

>  <Gold.PLP.part.metal>  (174) 
0.0000

>  <Gold.PLP.part.nonpolar>  (174) 
-26.0231

>  <Gold.PLP.part.repulsive>  (174) 
0.4908

>  <Gold.Protein.RotatedAtoms>  (174) 


>  <Gold.Protein.RotatedTorsions>  (174) 


>  <Gold.Protein.RotatedWaterAtoms>  (174) 


>  <Gold.Version>  (174) 
5.3.0

>  <PLP.Chemscore.CHOScore>  (174) 


>  <PLP.Chemscore.Hbond>  (174) 


>  <PLP.Chemscore.Internal.Correction>  (174) 


>  <PLP.Chemscore.Metal>  (174) 


>  <PLP.Fitness>  (174) 


>  <PLP.PLP>  (174) 


>  <PLP.ligand.clash>  (174) 


>  <PLP.ligand.torsion>  (174) 


>  <PLP.part.buried>  (174) 


>  <PLP.part.hbond>  (174) 


>  <PLP.part.metal>  (174) 


>  <PLP.part.nonpolar>  (174) 


>  <PLP.part.repulsive>  (174) 


>  <Version>  (174) 


$$$$
3174|Compound_1942|Compounds_3D_F|sdf|566|dock8|1
     RDKit          3D

 21 22  0  0  0  0  0  0  0  0999 V2000
  -13.8867  -18.8100    8.5979 O   0  0  0  0  0  0  0  0  0  0  0  0
  -13.4721  -19.8719    9.3162 C   0  0  0  0  0  0  0  0  0  0  0  0
  -12.5443  -19.7561   10.0907 O   0  0  0  0  0  0  0  0  0  0  0  0
  -14.1469  -21.1795    9.1596 C   0  0  0  0  0  0  0  0  0  0  0  0
  -15.0744  -21.3568    8.2154 N   0  0  0  0  0  0  0  0  0  0  0  0
  -15.6800  -22.5187    8.0716 C   0  0  0  0  0  0  0  0  0  0  0  0
  -16.6142  -22.6553    7.0994 O   0  0  0  0  0  0  0  0  0  0  0  0
  -15.4037  -23.5572    8.8465 N   0  0  0  0  0  0  0  0  0  0  0  0
  -14.4972  -23.4690    9.8072 C   0  0  0  0  0  0  0  0  0  0  0  0
  -14.2227  -24.5375   10.5944 O   0  0  0  0  0  0  0  0  0  0  0  0
  -13.8208  -22.2518    9.9959 C   0  0  0  0  0  0  0  0  0  0  0  0
  -12.8596  -22.1136   10.9969 N   0  0  0  0  0  0  0  0  0  0  0  0
  -13.2205  -22.1869   12.2932 C   0  0  0  0  0  0  0  0  0  0  0  0
  -14.3923  -22.3196   12.5913 O   0  0  0  0  0  0  0  0  0  0  0  0
  -12.1963  -22.1054   13.3492 C   0  0  0  0  0  0  0  0  0  0  0  0
  -10.8381  -22.2794   13.2402 C   0  0  0  0  0  0  0  0  0  0  0  0
  -10.3382  -22.1051   14.4659 O   0  0  0  0  0  0  0  0  0  0  0  0
  -11.1820  -21.8556   15.2919 N   0  0  0  0  0  0  0  0  0  0  0  0
  -12.3756  -21.8113   14.7802 C   0  0  0  0  0  0  0  0  0  0  0  0
  -13.6683  -21.5285   15.5001 C   0  0  0  0  0  0  0  0  0  0  0  0
  -10.0665  -22.6010   11.9868 C   0  0  0  0  0  0  0  0  0  0  0  0
  1  2  1  0
  2  3  2  0
  2  4  1  0
  4  5  2  0
  4 11  1  0
  5  6  1  0
  6  7  1  0
  6  8  2  0
  8  9  1  0
  9 10  1  0
  9 11  2  0
 11 12  1  0
 12 13  1  0
 13 14  2  0
 13 15  1  0
 15 16  2  0
 15 19  1  0
 16 17  1  0
 16 21  1  0
 17 18  1  0
 18 19  2  0
 19 20  1  0
M  END
>  <Gold.Gold.Protein.RotatedWaterAtoms>  (175) 


>  <Gold.Id.Protein>  (175) 


>  <Gold.PLP.Chemscore.CHOScore>  (175) 
0.0000

>  <Gold.PLP.Chemscore.Hbond>  (175) 
4.0000

>  <Gold.PLP.Chemscore.Internal.Correction>  (175) 
1.1580

>  <Gold.PLP.Chemscore.Metal>  (175) 
0.0000

>  <Gold.PLP.Fitness>  (175) 
43.6670

>  <Gold.PLP.PLP>  (175) 
-32.0792

>  <Gold.PLP.ligand.clash>  (175) 
0.0000

>  <Gold.PLP.ligand.torsion>  (175) 
0.7851

>  <Gold.PLP.part.buried>  (175) 
-6.3605

>  <Gold.PLP.part.hbond>  (175) 
-6.4561

>  <Gold.PLP.part.metal>  (175) 
0.0000

>  <Gold.PLP.part.nonpolar>  (175) 
-20.1508

>  <Gold.PLP.part.repulsive>  (175) 
1.1218

>  <Gold.Protein.RotatedAtoms>  (175) 


>  <Gold.Protein.RotatedTorsions>  (175) 


>  <Gold.Protein.RotatedWaterAtoms>  (175) 


>  <Gold.Version>  (175) 
5.3.0

>  <PLP.Chemscore.CHOScore>  (175) 


>  <PLP.Chemscore.Hbond>  (175) 


>  <PLP.Chemscore.Internal.Correction>  (175) 


>  <PLP.Chemscore.Metal>  (175) 


>  <PLP.Fitness>  (175) 


>  <PLP.PLP>  (175) 


>  <PLP.ligand.clash>  (175) 


>  <PLP.ligand.torsion>  (175) 


>  <PLP.part.buried>  (175) 


>  <PLP.part.hbond>  (175) 


>  <PLP.part.metal>  (175) 


>  <PLP.part.nonpolar>  (175) 


>  <PLP.part.repulsive>  (175) 


>  <Version>  (175) 


$$$$
3175|Compound_1942|Compounds_3D_F|sdf|566|dock9|1
     RDKit          3D

 21 22  0  0  0  0  0  0  0  0999 V2000
   -6.9602  -18.5650    9.2897 O   0  0  0  0  0  0  0  0  0  0  0  0
   -8.1003  -18.8665    8.6381 C   0  0  0  0  0  0  0  0  0  0  0  0
   -8.0701  -19.1365    7.4548 O   0  0  0  0  0  0  0  0  0  0  0  0
   -9.3893  -18.8671    9.3649 C   0  0  0  0  0  0  0  0  0  0  0  0
  -10.4312  -19.5608    8.8997 N   0  0  0  0  0  0  0  0  0  0  0  0
  -11.5825  -19.5645    9.5417 C   0  0  0  0  0  0  0  0  0  0  0  0
  -12.6135  -20.2834    9.0350 O   0  0  0  0  0  0  0  0  0  0  0  0
  -11.7632  -18.8888   10.6669 N   0  0  0  0  0  0  0  0  0  0  0  0
  -10.7832  -18.1748   11.1983 C   0  0  0  0  0  0  0  0  0  0  0  0
  -10.9792  -17.4869   12.3495 O   0  0  0  0  0  0  0  0  0  0  0  0
   -9.5353  -18.1441   10.5529 C   0  0  0  0  0  0  0  0  0  0  0  0
   -8.4756  -17.4039   11.0764 N   0  0  0  0  0  0  0  0  0  0  0  0
   -8.4968  -16.0579   11.0127 C   0  0  0  0  0  0  0  0  0  0  0  0
   -9.4142  -15.4905   10.4507 O   0  0  0  0  0  0  0  0  0  0  0  0
   -7.4087  -15.2739   11.6226 C   0  0  0  0  0  0  0  0  0  0  0  0
   -6.1614  -15.6982   12.0115 C   0  0  0  0  0  0  0  0  0  0  0  0
   -5.5376  -14.6259   12.5053 O   0  0  0  0  0  0  0  0  0  0  0  0
   -6.2143  -13.6271   12.4750 N   0  0  0  0  0  0  0  0  0  0  0  0
   -7.3878  -13.8414   11.9598 C   0  0  0  0  0  0  0  0  0  0  0  0
   -8.4945  -12.8391   11.7594 C   0  0  0  0  0  0  0  0  0  0  0  0
   -5.6074  -17.0949   11.9010 C   0  0  0  0  0  0  0  0  0  0  0  0
  1  2  1  0
  2  3  2  0
  2  4  1  0
  4  5  2  0
  4 11  1  0
  5  6  1  0
  6  7  1  0
  6  8  2  0
  8  9  1  0
  9 10  1  0
  9 11  2  0
 11 12  1  0
 12 13  1  0
 13 14  2  0
 13 15  1  0
 15 16  2  0
 15 19  1  0
 16 17  1  0
 16 21  1  0
 17 18  1  0
 18 19  2  0
 19 20  1  0
M  END
>  <Gold.Gold.Protein.RotatedWaterAtoms>  (176) 


>  <Gold.Id.Protein>  (176) 


>  <Gold.PLP.Chemscore.CHOScore>  (176) 
0.0000

>  <Gold.PLP.Chemscore.Hbond>  (176) 
2.9280

>  <Gold.PLP.Chemscore.Internal.Correction>  (176) 
1.1580

>  <Gold.PLP.Chemscore.Metal>  (176) 
0.0000

>  <Gold.PLP.Fitness>  (176) 
43.7315

>  <Gold.PLP.PLP>  (176) 
-35.8248

>  <Gold.PLP.ligand.clash>  (176) 
0.0000

>  <Gold.PLP.ligand.torsion>  (176) 
1.0177

>  <Gold.PLP.part.buried>  (176) 
-7.9319

>  <Gold.PLP.part.hbond>  (176) 
-4.6926

>  <Gold.PLP.part.metal>  (176) 
0.0000

>  <Gold.PLP.part.nonpolar>  (176) 
-23.1043

>  <Gold.PLP.part.repulsive>  (176) 
0.4942

>  <Gold.Protein.RotatedAtoms>  (176) 


>  <Gold.Protein.RotatedTorsions>  (176) 


>  <Gold.Protein.RotatedWaterAtoms>  (176) 


>  <Gold.Version>  (176) 
5.3.0

>  <PLP.Chemscore.CHOScore>  (176) 


>  <PLP.Chemscore.Hbond>  (176) 


>  <PLP.Chemscore.Internal.Correction>  (176) 


>  <PLP.Chemscore.Metal>  (176) 


>  <PLP.Fitness>  (176) 


>  <PLP.PLP>  (176) 


>  <PLP.ligand.clash>  (176) 


>  <PLP.ligand.torsion>  (176) 


>  <PLP.part.buried>  (176) 


>  <PLP.part.hbond>  (176) 


>  <PLP.part.metal>  (176) 


>  <PLP.part.nonpolar>  (176) 


>  <PLP.part.repulsive>  (176) 


>  <Version>  (176) 


$$$$
3176|Compound_1945|Compounds_3D_F|sdf|567|dock1|1
     RDKit          3D

 20 21  0  0  0  0  0  0  0  0999 V2000
   -8.0903  -17.0350   11.6701 N   0  0  0  0  0  0  0  0  0  0  0  0
   -8.1810  -15.7049   11.4710 C   0  0  0  0  0  0  0  0  0  0  0  0
   -9.1420  -15.2420   10.8890 O   0  0  0  0  0  0  0  0  0  0  0  0
   -7.1142  -14.8129   11.9597 C   0  0  0  0  0  0  0  0  0  0  0  0
   -5.8361  -15.1377   12.3444 C   0  0  0  0  0  0  0  0  0  0  0  0
   -5.2519  -13.9933   12.7077 O   0  0  0  0  0  0  0  0  0  0  0  0
   -5.9768  -13.0353   12.6012 N   0  0  0  0  0  0  0  0  0  0  0  0
   -7.1537  -13.3550   12.1499 C   0  0  0  0  0  0  0  0  0  0  0  0
   -8.3151  -12.4301   11.8880 C   0  0  0  0  0  0  0  0  0  0  0  0
   -5.2172  -16.5112   12.3561 C   0  0  0  0  0  0  0  0  0  0  0  0
   -9.0901  -17.8744   11.2067 C   0  0  0  0  0  0  0  0  0  0  0  0
  -10.1814  -17.4903   10.5995 N   0  0  0  0  0  0  0  0  0  0  0  0
  -10.9166  -18.5966   10.2976 C   0  0  0  0  0  0  0  0  0  0  0  0
  -10.2232  -19.6765   10.7502 C   0  0  0  0  0  0  0  0  0  0  0  0
   -9.0902  -19.2136   11.3067 O   0  0  0  0  0  0  0  0  0  0  0  0
  -12.2195  -18.6205    9.6111 C   0  0  0  0  0  0  0  0  0  0  0  0
  -12.7092  -17.5881    9.1998 O   0  0  0  0  0  0  0  0  0  0  0  0
  -12.8690  -19.7898    9.4408 O   0  0  0  0  0  0  0  0  0  0  0  0
  -14.1969  -19.7259    8.8569 C   0  0  0  0  0  0  0  0  0  0  0  0
  -14.8000  -21.1317    8.8072 C   0  0  0  0  0  0  0  0  0  0  0  0
  1  2  1  0
  1 11  1  0
  2  3  2  0
  2  4  1  0
  4  5  2  0
  4  8  1  0
  5  6  1  0
  5 10  1  0
  6  7  1  0
  7  8  2  0
  8  9  1  0
 11 12  2  0
 11 15  1  0
 12 13  1  0
 13 14  2  0
 13 16  1  0
 14 15  1  0
 16 17  2  0
 16 18  1  0
 18 19  1  0
 19 20  1  0
M  END
>  <Gold.Gold.Protein.RotatedWaterAtoms>  (177) 


>  <Gold.Id.Protein>  (177) 


>  <Gold.PLP.Chemscore.CHOScore>  (177) 
0.0000

>  <Gold.PLP.Chemscore.Hbond>  (177) 
1.0000

>  <Gold.PLP.Chemscore.Internal.Correction>  (177) 
0.0531

>  <Gold.PLP.Chemscore.Metal>  (177) 
0.0000

>  <Gold.PLP.Fitness>  (177) 
48.3536

>  <Gold.PLP.PLP>  (177) 
-45.8652

>  <Gold.PLP.ligand.clash>  (177) 
0.2509

>  <Gold.PLP.ligand.torsion>  (177) 
0.1569

>  <Gold.PLP.part.buried>  (177) 
-10.0639

>  <Gold.PLP.part.hbond>  (177) 
-3.0000

>  <Gold.PLP.part.metal>  (177) 
0.0000

>  <Gold.PLP.part.nonpolar>  (177) 
-33.7087

>  <Gold.PLP.part.repulsive>  (177) 
0.7131

>  <Gold.Protein.RotatedAtoms>  (177) 


>  <Gold.Protein.RotatedTorsions>  (177) 


>  <Gold.Protein.RotatedWaterAtoms>  (177) 


>  <Gold.Version>  (177) 
5.3.0

>  <PLP.Chemscore.CHOScore>  (177) 


>  <PLP.Chemscore.Hbond>  (177) 


>  <PLP.Chemscore.Internal.Correction>  (177) 


>  <PLP.Chemscore.Metal>  (177) 


>  <PLP.Fitness>  (177) 


>  <PLP.PLP>  (177) 


>  <PLP.ligand.clash>  (177) 


>  <PLP.ligand.torsion>  (177) 


>  <PLP.part.buried>  (177) 


>  <PLP.part.hbond>  (177) 


>  <PLP.part.metal>  (177) 


>  <PLP.part.nonpolar>  (177) 


>  <PLP.part.repulsive>  (177) 


>  <Version>  (177) 


$$$$
3177|Compound_1945|Compounds_3D_F|sdf|567|dock2|1
     RDKit          3D

 20 21  0  0  0  0  0  0  0  0999 V2000
   -7.8410  -16.4911   11.6606 N   0  0  0  0  0  0  0  0  0  0  0  0
   -8.1626  -15.1820   11.6685 C   0  0  0  0  0  0  0  0  0  0  0  0
   -9.3160  -14.8390   11.4992 O   0  0  0  0  0  0  0  0  0  0  0  0
   -7.1149  -14.1677   11.8826 C   0  0  0  0  0  0  0  0  0  0  0  0
   -7.2303  -12.7991   11.8568 C   0  0  0  0  0  0  0  0  0  0  0  0
   -6.0110  -12.3154   12.1059 O   0  0  0  0  0  0  0  0  0  0  0  0
   -5.1843  -13.1767   12.2772 N   0  0  0  0  0  0  0  0  0  0  0  0
   -5.6895  -14.3712   12.1826 C   0  0  0  0  0  0  0  0  0  0  0  0
   -4.9662  -15.6850   12.3365 C   0  0  0  0  0  0  0  0  0  0  0  0
   -8.4823  -12.0024   11.5973 C   0  0  0  0  0  0  0  0  0  0  0  0
   -8.8243  -17.4447   11.4545 C   0  0  0  0  0  0  0  0  0  0  0  0
  -10.0826  -17.3193   11.7835 N   0  0  0  0  0  0  0  0  0  0  0  0
  -10.7357  -18.4595   11.4242 C   0  0  0  0  0  0  0  0  0  0  0  0
   -9.8163  -19.2893   10.8602 C   0  0  0  0  0  0  0  0  0  0  0  0
   -8.6368  -18.6444   10.8810 O   0  0  0  0  0  0  0  0  0  0  0  0
  -12.1687  -18.7429   11.6119 C   0  0  0  0  0  0  0  0  0  0  0  0
  -12.7877  -18.1874   12.4969 O   0  0  0  0  0  0  0  0  0  0  0  0
  -12.7929  -19.6210   10.8011 O   0  0  0  0  0  0  0  0  0  0  0  0
  -14.2061  -19.3978   10.5531 C   0  0  0  0  0  0  0  0  0  0  0  0
  -14.5934  -20.0247    9.2117 C   0  0  0  0  0  0  0  0  0  0  0  0
  1  2  1  0
  1 11  1  0
  2  3  2  0
  2  4  1  0
  4  5  2  0
  4  8  1  0
  5  6  1  0
  5 10  1  0
  6  7  1  0
  7  8  2  0
  8  9  1  0
 11 12  2  0
 11 15  1  0
 12 13  1  0
 13 14  2  0
 13 16  1  0
 14 15  1  0
 16 17  2  0
 16 18  1  0
 18 19  1  0
 19 20  1  0
M  END
>  <Gold.Gold.Protein.RotatedWaterAtoms>  (178) 


>  <Gold.Id.Protein>  (178) 


>  <Gold.PLP.Chemscore.CHOScore>  (178) 
0.0000

>  <Gold.PLP.Chemscore.Hbond>  (178) 
1.4719

>  <Gold.PLP.Chemscore.Internal.Correction>  (178) 
0.0531

>  <Gold.PLP.Chemscore.Metal>  (178) 
0.0000

>  <Gold.PLP.Fitness>  (178) 
49.9201

>  <Gold.PLP.PLP>  (178) 
-47.4249

>  <Gold.PLP.ligand.clash>  (178) 
0.0000

>  <Gold.PLP.ligand.torsion>  (178) 
0.9868

>  <Gold.PLP.part.buried>  (178) 
-11.7676

>  <Gold.PLP.part.hbond>  (178) 
-3.0321

>  <Gold.PLP.part.metal>  (178) 
0.0000

>  <Gold.PLP.part.nonpolar>  (178) 
-34.3539

>  <Gold.PLP.part.repulsive>  (178) 
0.9421

>  <Gold.Protein.RotatedAtoms>  (178) 


>  <Gold.Protein.RotatedTorsions>  (178) 


>  <Gold.Protein.RotatedWaterAtoms>  (178) 


>  <Gold.Version>  (178) 
5.3.0

>  <PLP.Chemscore.CHOScore>  (178) 


>  <PLP.Chemscore.Hbond>  (178) 


>  <PLP.Chemscore.Internal.Correction>  (178) 


>  <PLP.Chemscore.Metal>  (178) 


>  <PLP.Fitness>  (178) 


>  <PLP.PLP>  (178) 


>  <PLP.ligand.clash>  (178) 


>  <PLP.ligand.torsion>  (178) 


>  <PLP.part.buried>  (178) 


>  <PLP.part.hbond>  (178) 


>  <PLP.part.metal>  (178) 


>  <PLP.part.nonpolar>  (178) 


>  <PLP.part.repulsive>  (178) 


>  <Version>  (178) 


$$$$
3178|Compound_1945|Compounds_3D_F|sdf|567|dock3|1
     RDKit          3D

 20 21  0  0  0  0  0  0  0  0999 V2000
   -8.2998  -16.7722   11.7240 N   0  0  0  0  0  0  0  0  0  0  0  0
   -8.3084  -15.4870   11.3175 C   0  0  0  0  0  0  0  0  0  0  0  0
   -9.1535  -15.1038   10.5330 O   0  0  0  0  0  0  0  0  0  0  0  0
   -7.2925  -14.5474   11.8252 C   0  0  0  0  0  0  0  0  0  0  0  0
   -7.3649  -13.1791   11.9230 C   0  0  0  0  0  0  0  0  0  0  0  0
   -6.2010  -12.7784   12.4405 O   0  0  0  0  0  0  0  0  0  0  0  0
   -5.4439  -13.6891   12.6683 N   0  0  0  0  0  0  0  0  0  0  0  0
   -5.9540  -14.8442   12.3577 C   0  0  0  0  0  0  0  0  0  0  0  0
   -5.3072  -16.1984   12.5019 C   0  0  0  0  0  0  0  0  0  0  0  0
   -8.5249  -12.3046   11.5243 C   0  0  0  0  0  0  0  0  0  0  0  0
   -9.2512  -17.6570   11.2434 C   0  0  0  0  0  0  0  0  0  0  0  0
  -10.3706  -17.3223   10.6585 N   0  0  0  0  0  0  0  0  0  0  0  0
  -11.0398  -18.4621   10.3286 C   0  0  0  0  0  0  0  0  0  0  0  0
  -10.2765  -19.5106   10.7408 C   0  0  0  0  0  0  0  0  0  0  0  0
   -9.1681  -18.9960   11.3013 O   0  0  0  0  0  0  0  0  0  0  0  0
  -12.3461  -18.5451    9.6534 C   0  0  0  0  0  0  0  0  0  0  0  0
  -12.8617  -17.5429    9.2011 O   0  0  0  0  0  0  0  0  0  0  0  0
  -12.9701  -19.7349    9.5391 O   0  0  0  0  0  0  0  0  0  0  0  0
  -14.2757  -19.7349    8.9036 C   0  0  0  0  0  0  0  0  0  0  0  0
  -14.6651  -21.1694    8.5390 C   0  0  0  0  0  0  0  0  0  0  0  0
  1  2  1  0
  1 11  1  0
  2  3  2  0
  2  4  1  0
  4  5  2  0
  4  8  1  0
  5  6  1  0
  5 10  1  0
  6  7  1  0
  7  8  2  0
  8  9  1  0
 11 12  2  0
 11 15  1  0
 12 13  1  0
 13 14  2  0
 13 16  1  0
 14 15  1  0
 16 17  2  0
 16 18  1  0
 18 19  1  0
 19 20  1  0
M  END
>  <Gold.Gold.Protein.RotatedWaterAtoms>  (179) 


>  <Gold.Id.Protein>  (179) 


>  <Gold.PLP.Chemscore.CHOScore>  (179) 
0.0000

>  <Gold.PLP.Chemscore.Hbond>  (179) 
1.0000

>  <Gold.PLP.Chemscore.Internal.Correction>  (179) 
0.0531

>  <Gold.PLP.Chemscore.Metal>  (179) 
0.0000

>  <Gold.PLP.Fitness>  (179) 
48.8346

>  <Gold.PLP.PLP>  (179) 
-46.5850

>  <Gold.PLP.ligand.clash>  (179) 
0.0000

>  <Gold.PLP.ligand.torsion>  (179) 
0.4017

>  <Gold.PLP.part.buried>  (179) 
-10.1579

>  <Gold.PLP.part.hbond>  (179) 
-3.0000

>  <Gold.PLP.part.metal>  (179) 
0.0000

>  <Gold.PLP.part.nonpolar>  (179) 
-34.0768

>  <Gold.PLP.part.repulsive>  (179) 
0.7107

>  <Gold.Protein.RotatedAtoms>  (179) 


>  <Gold.Protein.RotatedTorsions>  (179) 


>  <Gold.Protein.RotatedWaterAtoms>  (179) 


>  <Gold.Version>  (179) 
5.3.0

>  <PLP.Chemscore.CHOScore>  (179) 


>  <PLP.Chemscore.Hbond>  (179) 


>  <PLP.Chemscore.Internal.Correction>  (179) 


>  <PLP.Chemscore.Metal>  (179) 


>  <PLP.Fitness>  (179) 


>  <PLP.PLP>  (179) 


>  <PLP.ligand.clash>  (179) 


>  <PLP.ligand.torsion>  (179) 


>  <PLP.part.buried>  (179) 


>  <PLP.part.hbond>  (179) 


>  <PLP.part.metal>  (179) 


>  <PLP.part.nonpolar>  (179) 


>  <PLP.part.repulsive>  (179) 


>  <Version>  (179) 


$$$$
3179|Compound_1945|Compounds_3D_F|sdf|567|dock4|1
     RDKit          3D

 20 21  0  0  0  0  0  0  0  0999 V2000
   -8.0514  -16.8003   11.7734 N   0  0  0  0  0  0  0  0  0  0  0  0
   -8.2245  -15.4814   11.5554 C   0  0  0  0  0  0  0  0  0  0  0  0
   -9.2446  -15.0814   11.0301 O   0  0  0  0  0  0  0  0  0  0  0  0
   -7.1761  -14.5253   11.9546 C   0  0  0  0  0  0  0  0  0  0  0  0
   -7.2490  -13.1554   12.0261 C   0  0  0  0  0  0  0  0  0  0  0  0
   -6.0488  -12.7372   12.4352 O   0  0  0  0  0  0  0  0  0  0  0  0
   -5.2694  -13.6386   12.6204 N   0  0  0  0  0  0  0  0  0  0  0  0
   -5.7960  -14.8032   12.3804 C   0  0  0  0  0  0  0  0  0  0  0  0
   -5.1305  -16.1505   12.5018 C   0  0  0  0  0  0  0  0  0  0  0  0
   -8.4440  -12.2960   11.7051 C   0  0  0  0  0  0  0  0  0  0  0  0
   -9.0341  -17.6998   11.3940 C   0  0  0  0  0  0  0  0  0  0  0  0
  -10.3179  -17.4577   11.3777 N   0  0  0  0  0  0  0  0  0  0  0  0
  -10.9609  -18.5798   10.9497 C   0  0  0  0  0  0  0  0  0  0  0  0
  -10.0087  -19.5210   10.7058 C   0  0  0  0  0  0  0  0  0  0  0  0
   -8.8185  -18.9592   10.9805 O   0  0  0  0  0  0  0  0  0  0  0  0
  -12.4149  -18.7451   10.7833 C   0  0  0  0  0  0  0  0  0  0  0  0
  -13.1802  -18.2220   11.5679 O   0  0  0  0  0  0  0  0  0  0  0  0
  -12.8959  -19.4792    9.7597 O   0  0  0  0  0  0  0  0  0  0  0  0
  -14.3325  -19.4540    9.5499 C   0  0  0  0  0  0  0  0  0  0  0  0
  -14.7310  -20.5971    8.6135 C   0  0  0  0  0  0  0  0  0  0  0  0
  1  2  1  0
  1 11  1  0
  2  3  2  0
  2  4  1  0
  4  5  2  0
  4  8  1  0
  5  6  1  0
  5 10  1  0
  6  7  1  0
  7  8  2  0
  8  9  1  0
 11 12  2  0
 11 15  1  0
 12 13  1  0
 13 14  2  0
 13 16  1  0
 14 15  1  0
 16 17  2  0
 16 18  1  0
 18 19  1  0
 19 20  1  0
M  END
>  <Gold.Gold.Protein.RotatedWaterAtoms>  (180) 


>  <Gold.Id.Protein>  (180) 


>  <Gold.PLP.Chemscore.CHOScore>  (180) 
0.0000

>  <Gold.PLP.Chemscore.Hbond>  (180) 
1.0000

>  <Gold.PLP.Chemscore.Internal.Correction>  (180) 
0.0531

>  <Gold.PLP.Chemscore.Metal>  (180) 
0.0000

>  <Gold.PLP.Fitness>  (180) 
47.5920

>  <Gold.PLP.PLP>  (180) 
-46.3864

>  <Gold.PLP.ligand.clash>  (180) 
0.0000

>  <Gold.PLP.ligand.torsion>  (180) 
0.9238

>  <Gold.PLP.part.buried>  (180) 
-9.8916

>  <Gold.PLP.part.hbond>  (180) 
-2.0145

>  <Gold.PLP.part.metal>  (180) 
0.0000

>  <Gold.PLP.part.nonpolar>  (180) 
-34.4601

>  <Gold.PLP.part.repulsive>  (180) 
0.8028

>  <Gold.Protein.RotatedAtoms>  (180) 


>  <Gold.Protein.RotatedTorsions>  (180) 


>  <Gold.Protein.RotatedWaterAtoms>  (180) 


>  <Gold.Version>  (180) 
5.3.0

>  <PLP.Chemscore.CHOScore>  (180) 


>  <PLP.Chemscore.Hbond>  (180) 


>  <PLP.Chemscore.Internal.Correction>  (180) 


>  <PLP.Chemscore.Metal>  (180) 


>  <PLP.Fitness>  (180) 


>  <PLP.PLP>  (180) 


>  <PLP.ligand.clash>  (180) 


>  <PLP.ligand.torsion>  (180) 


>  <PLP.part.buried>  (180) 


>  <PLP.part.hbond>  (180) 


>  <PLP.part.metal>  (180) 


>  <PLP.part.nonpolar>  (180) 


>  <PLP.part.repulsive>  (180) 


>  <Version>  (180) 


$$$$
3180|Compound_1945|Compounds_3D_F|sdf|567|dock5|1
     RDKit          3D

 20 21  0  0  0  0  0  0  0  0999 V2000
   -8.1570  -16.8550   11.5851 N   0  0  0  0  0  0  0  0  0  0  0  0
   -8.2494  -15.5349   11.3282 C   0  0  0  0  0  0  0  0  0  0  0  0
   -9.1590  -15.1119   10.6425 O   0  0  0  0  0  0  0  0  0  0  0  0
   -7.2469  -14.6057   11.8795 C   0  0  0  0  0  0  0  0  0  0  0  0
   -6.0049  -14.8918   12.3920 C   0  0  0  0  0  0  0  0  0  0  0  0
   -5.4753  -13.7241   12.7647 O   0  0  0  0  0  0  0  0  0  0  0  0
   -6.2025  -12.7847   12.5564 N   0  0  0  0  0  0  0  0  0  0  0  0
   -7.3272  -13.1430   12.0109 C   0  0  0  0  0  0  0  0  0  0  0  0
   -8.4740  -12.2506   11.6090 C   0  0  0  0  0  0  0  0  0  0  0  0
   -5.3679  -16.2517   12.5117 C   0  0  0  0  0  0  0  0  0  0  0  0
   -9.0960  -17.7296   11.0632 C   0  0  0  0  0  0  0  0  0  0  0  0
  -10.2595  -17.3898   10.5754 N   0  0  0  0  0  0  0  0  0  0  0  0
  -10.8979  -18.5199   10.1616 C   0  0  0  0  0  0  0  0  0  0  0  0
  -10.0693  -19.5679   10.4205 C   0  0  0  0  0  0  0  0  0  0  0  0
   -8.9537  -19.0620   10.9745 O   0  0  0  0  0  0  0  0  0  0  0  0
  -12.2355  -18.5947    9.5496 C   0  0  0  0  0  0  0  0  0  0  0  0
  -12.8021  -17.5789    9.2003 O   0  0  0  0  0  0  0  0  0  0  0  0
  -12.8313  -19.7921    9.3787 O   0  0  0  0  0  0  0  0  0  0  0  0
  -14.2007  -19.7828    8.8960 C   0  0  0  0  0  0  0  0  0  0  0  0
  -14.5967  -21.1951    8.4590 C   0  0  0  0  0  0  0  0  0  0  0  0
  1  2  1  0
  1 11  1  0
  2  3  2  0
  2  4  1  0
  4  5  2  0
  4  8  1  0
  5  6  1  0
  5 10  1  0
  6  7  1  0
  7  8  2  0
  8  9  1  0
 11 12  2  0
 11 15  1  0
 12 13  1  0
 13 14  2  0
 13 16  1  0
 14 15  1  0
 16 17  2  0
 16 18  1  0
 18 19  1  0
 19 20  1  0
M  END
>  <Gold.Gold.Protein.RotatedWaterAtoms>  (181) 


>  <Gold.Id.Protein>  (181) 


>  <Gold.PLP.Chemscore.CHOScore>  (181) 
0.0000

>  <Gold.PLP.Chemscore.Hbond>  (181) 
1.0000

>  <Gold.PLP.Chemscore.Internal.Correction>  (181) 
0.0531

>  <Gold.PLP.Chemscore.Metal>  (181) 
0.0000

>  <Gold.PLP.Fitness>  (181) 
49.0374

>  <Gold.PLP.PLP>  (181) 
-46.6016

>  <Gold.PLP.ligand.clash>  (181) 
0.0000

>  <Gold.PLP.ligand.torsion>  (181) 
0.3087

>  <Gold.PLP.part.buried>  (181) 
-10.4267

>  <Gold.PLP.part.hbond>  (181) 
-3.0000

>  <Gold.PLP.part.metal>  (181) 
0.0000

>  <Gold.PLP.part.nonpolar>  (181) 
-33.6094

>  <Gold.PLP.part.repulsive>  (181) 
0.7052

>  <Gold.Protein.RotatedAtoms>  (181) 


>  <Gold.Protein.RotatedTorsions>  (181) 


>  <Gold.Protein.RotatedWaterAtoms>  (181) 


>  <Gold.Version>  (181) 
5.3.0

>  <PLP.Chemscore.CHOScore>  (181) 


>  <PLP.Chemscore.Hbond>  (181) 


>  <PLP.Chemscore.Internal.Correction>  (181) 


>  <PLP.Chemscore.Metal>  (181) 


>  <PLP.Fitness>  (181) 


>  <PLP.PLP>  (181) 


>  <PLP.ligand.clash>  (181) 


>  <PLP.ligand.torsion>  (181) 


>  <PLP.part.buried>  (181) 


>  <PLP.part.hbond>  (181) 


>  <PLP.part.metal>  (181) 


>  <PLP.part.nonpolar>  (181) 


>  <PLP.part.repulsive>  (181) 


>  <Version>  (181) 


$$$$
3181|Compound_1945|Compounds_3D_F|sdf|567|dock6|1
     RDKit          3D

 20 21  0  0  0  0  0  0  0  0999 V2000
   -8.2148  -16.9781   11.4448 N   0  0  0  0  0  0  0  0  0  0  0  0
   -8.4036  -15.7011   11.8329 C   0  0  0  0  0  0  0  0  0  0  0  0
   -9.5308  -15.2668   11.9645 O   0  0  0  0  0  0  0  0  0  0  0  0
   -7.2425  -14.8325   12.0973 C   0  0  0  0  0  0  0  0  0  0  0  0
   -7.1896  -13.4602   12.1289 C   0  0  0  0  0  0  0  0  0  0  0  0
   -5.9234  -13.1404   12.4070 O   0  0  0  0  0  0  0  0  0  0  0  0
   -5.2103  -14.1029   12.5474 N   0  0  0  0  0  0  0  0  0  0  0  0
   -5.8565  -15.2215   12.3985 C   0  0  0  0  0  0  0  0  0  0  0  0
   -5.3011  -16.6193   12.5015 C   0  0  0  0  0  0  0  0  0  0  0  0
   -8.3316  -12.5060   11.8946 C   0  0  0  0  0  0  0  0  0  0  0  0
   -9.3055  -17.7935   11.1912 C   0  0  0  0  0  0  0  0  0  0  0  0
  -10.3749  -17.4440   10.5267 N   0  0  0  0  0  0  0  0  0  0  0  0
  -11.2226  -18.5096   10.4868 C   0  0  0  0  0  0  0  0  0  0  0  0
  -10.6210  -19.5280   11.1598 C   0  0  0  0  0  0  0  0  0  0  0  0
   -9.4306  -19.0709   11.5862 O   0  0  0  0  0  0  0  0  0  0  0  0
  -12.5442  -18.5522    9.8382 C   0  0  0  0  0  0  0  0  0  0  0  0
  -12.9412  -17.5960    9.2034 O   0  0  0  0  0  0  0  0  0  0  0  0
  -13.3140  -19.6535    9.9510 O   0  0  0  0  0  0  0  0  0  0  0  0
  -14.5026  -19.7135    9.1192 C   0  0  0  0  0  0  0  0  0  0  0  0
  -14.4920  -21.0111    8.3078 C   0  0  0  0  0  0  0  0  0  0  0  0
  1  2  1  0
  1 11  1  0
  2  3  2  0
  2  4  1  0
  4  5  2  0
  4  8  1  0
  5  6  1  0
  5 10  1  0
  6  7  1  0
  7  8  2  0
  8  9  1  0
 11 12  2  0
 11 15  1  0
 12 13  1  0
 13 14  2  0
 13 16  1  0
 14 15  1  0
 16 17  2  0
 16 18  1  0
 18 19  1  0
 19 20  1  0
M  END
>  <Gold.Gold.Protein.RotatedWaterAtoms>  (182) 


>  <Gold.Id.Protein>  (182) 


>  <Gold.PLP.Chemscore.CHOScore>  (182) 
0.0000

>  <Gold.PLP.Chemscore.Hbond>  (182) 
1.0000

>  <Gold.PLP.Chemscore.Internal.Correction>  (182) 
0.0531

>  <Gold.PLP.Chemscore.Metal>  (182) 
0.0000

>  <Gold.PLP.Fitness>  (182) 
48.9132

>  <Gold.PLP.PLP>  (182) 
-47.8426

>  <Gold.PLP.ligand.clash>  (182) 
0.0000

>  <Gold.PLP.ligand.torsion>  (182) 
0.9912

>  <Gold.PLP.part.buried>  (182) 
-10.1801

>  <Gold.PLP.part.hbond>  (182) 
-2.8272

>  <Gold.PLP.part.metal>  (182) 
0.0000

>  <Gold.PLP.part.nonpolar>  (182) 
-34.7212

>  <Gold.PLP.part.repulsive>  (182) 
0.7092

>  <Gold.Protein.RotatedAtoms>  (182) 


>  <Gold.Protein.RotatedTorsions>  (182) 


>  <Gold.Protein.RotatedWaterAtoms>  (182) 


>  <Gold.Version>  (182) 
5.3.0

>  <PLP.Chemscore.CHOScore>  (182) 


>  <PLP.Chemscore.Hbond>  (182) 


>  <PLP.Chemscore.Internal.Correction>  (182) 


>  <PLP.Chemscore.Metal>  (182) 


>  <PLP.Fitness>  (182) 


>  <PLP.PLP>  (182) 


>  <PLP.ligand.clash>  (182) 


>  <PLP.ligand.torsion>  (182) 


>  <PLP.part.buried>  (182) 


>  <PLP.part.hbond>  (182) 


>  <PLP.part.metal>  (182) 


>  <PLP.part.nonpolar>  (182) 


>  <PLP.part.repulsive>  (182) 


>  <Version>  (182) 


$$$$
3182|Compound_1945|Compounds_3D_F|sdf|567|dock7|1
     RDKit          3D

 20 21  0  0  0  0  0  0  0  0999 V2000
   -8.3754  -17.0211   11.8516 N   0  0  0  0  0  0  0  0  0  0  0  0
   -8.4440  -15.7051   11.5676 C   0  0  0  0  0  0  0  0  0  0  0  0
   -9.3868  -15.2681   10.9379 O   0  0  0  0  0  0  0  0  0  0  0  0
   -7.3751  -14.7973   12.0213 C   0  0  0  0  0  0  0  0  0  0  0  0
   -7.3844  -13.4248   12.0779 C   0  0  0  0  0  0  0  0  0  0  0  0
   -6.1913  -13.0614   12.5548 O   0  0  0  0  0  0  0  0  0  0  0  0
   -5.4698  -13.9979   12.7930 N   0  0  0  0  0  0  0  0  0  0  0  0
   -6.0381  -15.1378   12.5309 C   0  0  0  0  0  0  0  0  0  0  0  0
   -5.4484  -16.5147   12.7021 C   0  0  0  0  0  0  0  0  0  0  0  0
   -8.5143  -12.5114   11.6796 C   0  0  0  0  0  0  0  0  0  0  0  0
   -9.3770  -17.8756   11.4212 C   0  0  0  0  0  0  0  0  0  0  0  0
  -10.4536  -17.5164   10.7737 N   0  0  0  0  0  0  0  0  0  0  0  0
  -11.1966  -18.6307   10.5248 C   0  0  0  0  0  0  0  0  0  0  0  0
  -10.5233  -19.6894   11.0520 C   0  0  0  0  0  0  0  0  0  0  0  0
   -9.3944  -19.2065   11.5997 O   0  0  0  0  0  0  0  0  0  0  0  0
  -12.4880  -18.6812    9.8186 C   0  0  0  0  0  0  0  0  0  0  0  0
  -12.9919  -17.6591    9.3986 O   0  0  0  0  0  0  0  0  0  0  0  0
  -13.1115  -19.8633    9.6398 O   0  0  0  0  0  0  0  0  0  0  0  0
  -14.3666  -19.8416    8.9101 C   0  0  0  0  0  0  0  0  0  0  0  0
  -14.7890  -21.2751    8.5798 C   0  0  0  0  0  0  0  0  0  0  0  0
  1  2  1  0
  1 11  1  0
  2  3  2  0
  2  4  1  0
  4  5  2  0
  4  8  1  0
  5  6  1  0
  5 10  1  0
  6  7  1  0
  7  8  2  0
  8  9  1  0
 11 12  2  0
 11 15  1  0
 12 13  1  0
 13 14  2  0
 13 16  1  0
 14 15  1  0
 16 17  2  0
 16 18  1  0
 18 19  1  0
 19 20  1  0
M  END
>  <Gold.Gold.Protein.RotatedWaterAtoms>  (183) 


>  <Gold.Id.Protein>  (183) 


>  <Gold.PLP.Chemscore.CHOScore>  (183) 
0.0000

>  <Gold.PLP.Chemscore.Hbond>  (183) 
1.0000

>  <Gold.PLP.Chemscore.Internal.Correction>  (183) 
0.0531

>  <Gold.PLP.Chemscore.Metal>  (183) 
0.0000

>  <Gold.PLP.Fitness>  (183) 
48.2161

>  <Gold.PLP.PLP>  (183) 
-45.6508

>  <Gold.PLP.ligand.clash>  (183) 
0.2422

>  <Gold.PLP.ligand.torsion>  (183) 
0.1228

>  <Gold.PLP.part.buried>  (183) 
-10.2445

>  <Gold.PLP.part.hbond>  (183) 
-2.5985

>  <Gold.PLP.part.metal>  (183) 
0.0000

>  <Gold.PLP.part.nonpolar>  (183) 
-34.2900

>  <Gold.PLP.part.repulsive>  (183) 
0.7095

>  <Gold.Protein.RotatedAtoms>  (183) 


>  <Gold.Protein.RotatedTorsions>  (183) 


>  <Gold.Protein.RotatedWaterAtoms>  (183) 


>  <Gold.Version>  (183) 
5.3.0

>  <PLP.Chemscore.CHOScore>  (183) 


>  <PLP.Chemscore.Hbond>  (183) 


>  <PLP.Chemscore.Internal.Correction>  (183) 


>  <PLP.Chemscore.Metal>  (183) 


>  <PLP.Fitness>  (183) 


>  <PLP.PLP>  (183) 


>  <PLP.ligand.clash>  (183) 


>  <PLP.ligand.torsion>  (183) 


>  <PLP.part.buried>  (183) 


>  <PLP.part.hbond>  (183) 


>  <PLP.part.metal>  (183) 


>  <PLP.part.nonpolar>  (183) 


>  <PLP.part.repulsive>  (183) 


>  <Version>  (183) 


$$$$
3183|Compound_1945|Compounds_3D_F|sdf|567|dock8|1
     RDKit          3D

 20 21  0  0  0  0  0  0  0  0999 V2000
   -8.2503  -17.1497   11.5140 N   0  0  0  0  0  0  0  0  0  0  0  0
   -8.4871  -15.8630   11.8384 C   0  0  0  0  0  0  0  0  0  0  0  0
   -9.6276  -15.4449   11.8709 O   0  0  0  0  0  0  0  0  0  0  0  0
   -7.3624  -14.9641   12.1537 C   0  0  0  0  0  0  0  0  0  0  0  0
   -7.3485  -13.5910   12.1914 C   0  0  0  0  0  0  0  0  0  0  0  0
   -6.1043  -13.2379   12.5232 O   0  0  0  0  0  0  0  0  0  0  0  0
   -5.3715  -14.1810   12.6905 N   0  0  0  0  0  0  0  0  0  0  0  0
   -5.9799  -15.3163   12.5115 C   0  0  0  0  0  0  0  0  0  0  0  0
   -5.3911  -16.6988   12.6336 C   0  0  0  0  0  0  0  0  0  0  0  0
   -8.5055  -12.6674   11.9123 C   0  0  0  0  0  0  0  0  0  0  0  0
   -9.3065  -17.9938   11.2127 C   0  0  0  0  0  0  0  0  0  0  0  0
  -10.3605  -17.6688   10.5122 N   0  0  0  0  0  0  0  0  0  0  0  0
  -11.1745  -18.7581   10.4312 C   0  0  0  0  0  0  0  0  0  0  0  0
  -10.5684  -19.7653   11.1168 C   0  0  0  0  0  0  0  0  0  0  0  0
   -9.4085  -19.2782   11.5912 O   0  0  0  0  0  0  0  0  0  0  0  0
  -12.4695  -18.8324    9.7335 C   0  0  0  0  0  0  0  0  0  0  0  0
  -13.0300  -17.8142    9.3818 O   0  0  0  0  0  0  0  0  0  0  0  0
  -13.0330  -20.0322    9.4868 O   0  0  0  0  0  0  0  0  0  0  0  0
  -14.2366  -20.0394    8.6747 C   0  0  0  0  0  0  0  0  0  0  0  0
  -14.4802  -21.4514    8.1368 C   0  0  0  0  0  0  0  0  0  0  0  0
  1  2  1  0
  1 11  1  0
  2  3  2  0
  2  4  1  0
  4  5  2  0
  4  8  1  0
  5  6  1  0
  5 10  1  0
  6  7  1  0
  7  8  2  0
  8  9  1  0
 11 12  2  0
 11 15  1  0
 12 13  1  0
 13 14  2  0
 13 16  1  0
 14 15  1  0
 16 17  2  0
 16 18  1  0
 18 19  1  0
 19 20  1  0
M  END
>  <Gold.Gold.Protein.RotatedWaterAtoms>  (184) 


>  <Gold.Id.Protein>  (184) 


>  <Gold.PLP.Chemscore.CHOScore>  (184) 
0.0000

>  <Gold.PLP.Chemscore.Hbond>  (184) 
1.0000

>  <Gold.PLP.Chemscore.Internal.Correction>  (184) 
0.0531

>  <Gold.PLP.Chemscore.Metal>  (184) 
0.0000

>  <Gold.PLP.Fitness>  (184) 
48.4216

>  <Gold.PLP.PLP>  (184) 
-46.6634

>  <Gold.PLP.ligand.clash>  (184) 
0.0000

>  <Gold.PLP.ligand.torsion>  (184) 
0.6475

>  <Gold.PLP.part.buried>  (184) 
-10.4184

>  <Gold.PLP.part.hbond>  (184) 
-2.0611

>  <Gold.PLP.part.metal>  (184) 
0.0000

>  <Gold.PLP.part.nonpolar>  (184) 
-34.8192

>  <Gold.PLP.part.repulsive>  (184) 
0.6740

>  <Gold.Protein.RotatedAtoms>  (184) 


>  <Gold.Protein.RotatedTorsions>  (184) 


>  <Gold.Protein.RotatedWaterAtoms>  (184) 


>  <Gold.Version>  (184) 
5.3.0

>  <PLP.Chemscore.CHOScore>  (184) 


>  <PLP.Chemscore.Hbond>  (184) 


>  <PLP.Chemscore.Internal.Correction>  (184) 


>  <PLP.Chemscore.Metal>  (184) 


>  <PLP.Fitness>  (184) 


>  <PLP.PLP>  (184) 


>  <PLP.ligand.clash>  (184) 


>  <PLP.ligand.torsion>  (184) 


>  <PLP.part.buried>  (184) 


>  <PLP.part.hbond>  (184) 


>  <PLP.part.metal>  (184) 


>  <PLP.part.nonpolar>  (184) 


>  <PLP.part.repulsive>  (184) 


>  <Version>  (184) 


$$$$
3184|Compound_1945|Compounds_3D_F|sdf|567|dock9|1
     RDKit          3D

 20 21  0  0  0  0  0  0  0  0999 V2000
   -7.7938  -16.2839   11.6606 N   0  0  0  0  0  0  0  0  0  0  0  0
   -8.1476  -14.9863   11.7516 C   0  0  0  0  0  0  0  0  0  0  0  0
   -9.3175  -14.6686   11.6685 O   0  0  0  0  0  0  0  0  0  0  0  0
   -7.1149  -13.9539   11.9519 C   0  0  0  0  0  0  0  0  0  0  0  0
   -7.2471  -12.5879   11.8924 C   0  0  0  0  0  0  0  0  0  0  0  0
   -6.0365  -12.0830   12.1421 O   0  0  0  0  0  0  0  0  0  0  0  0
   -5.2010  -12.9294   12.3420 N   0  0  0  0  0  0  0  0  0  0  0  0
   -5.6902  -14.1321   12.2708 C   0  0  0  0  0  0  0  0  0  0  0  0
   -4.9522  -15.4326   12.4631 C   0  0  0  0  0  0  0  0  0  0  0  0
   -8.5063  -11.8136   11.6015 C   0  0  0  0  0  0  0  0  0  0  0  0
   -8.7633  -17.2542   11.4673 C   0  0  0  0  0  0  0  0  0  0  0  0
  -10.0375  -17.1136   11.7202 N   0  0  0  0  0  0  0  0  0  0  0  0
  -10.6688  -18.2786   11.4043 C   0  0  0  0  0  0  0  0  0  0  0  0
   -9.7195  -19.1396   10.9467 C   0  0  0  0  0  0  0  0  0  0  0  0
   -8.5437  -18.4887   10.9864 O   0  0  0  0  0  0  0  0  0  0  0  0
  -12.1094  -18.5561   11.5347 C   0  0  0  0  0  0  0  0  0  0  0  0
  -12.7230  -18.1454   12.4989 O   0  0  0  0  0  0  0  0  0  0  0  0
  -12.7463  -19.2680   10.5831 O   0  0  0  0  0  0  0  0  0  0  0  0
  -14.1884  -19.3865   10.7047 C   0  0  0  0  0  0  0  0  0  0  0  0
  -14.7416  -20.1424    9.4943 C   0  0  0  0  0  0  0  0  0  0  0  0
  1  2  1  0
  1 11  1  0
  2  3  2  0
  2  4  1  0
  4  5  2  0
  4  8  1  0
  5  6  1  0
  5 10  1  0
  6  7  1  0
  7  8  2  0
  8  9  1  0
 11 12  2  0
 11 15  1  0
 12 13  1  0
 13 14  2  0
 13 16  1  0
 14 15  1  0
 16 17  2  0
 16 18  1  0
 18 19  1  0
 19 20  1  0
M  END
>  <Gold.Gold.Protein.RotatedWaterAtoms>  (185) 


>  <Gold.Id.Protein>  (185) 


>  <Gold.PLP.Chemscore.CHOScore>  (185) 
0.0000

>  <Gold.PLP.Chemscore.Hbond>  (185) 
1.5824

>  <Gold.PLP.Chemscore.Internal.Correction>  (185) 
0.0531

>  <Gold.PLP.Chemscore.Metal>  (185) 
0.0000

>  <Gold.PLP.Fitness>  (185) 
50.6404

>  <Gold.PLP.PLP>  (185) 
-47.4051

>  <Gold.PLP.ligand.clash>  (185) 
0.0000

>  <Gold.PLP.ligand.torsion>  (185) 
0.7825

>  <Gold.PLP.part.buried>  (185) 
-11.6725

>  <Gold.PLP.part.hbond>  (185) 
-2.9865

>  <Gold.PLP.part.metal>  (185) 
0.0000

>  <Gold.PLP.part.nonpolar>  (185) 
-34.0618

>  <Gold.PLP.part.repulsive>  (185) 
0.9599

>  <Gold.Protein.RotatedAtoms>  (185) 


>  <Gold.Protein.RotatedTorsions>  (185) 


>  <Gold.Protein.RotatedWaterAtoms>  (185) 


>  <Gold.Version>  (185) 
5.3.0

>  <PLP.Chemscore.CHOScore>  (185) 


>  <PLP.Chemscore.Hbond>  (185) 


>  <PLP.Chemscore.Internal.Correction>  (185) 


>  <PLP.Chemscore.Metal>  (185) 


>  <PLP.Fitness>  (185) 


>  <PLP.PLP>  (185) 


>  <PLP.ligand.clash>  (185) 


>  <PLP.ligand.torsion>  (185) 


>  <PLP.part.buried>  (185) 


>  <PLP.part.hbond>  (185) 


>  <PLP.part.metal>  (185) 


>  <PLP.part.nonpolar>  (185) 


>  <PLP.part.repulsive>  (185) 


>  <Version>  (185) 


$$$$
3185|Compound_1946|Compounds_3D_F|sdf|568|dock1|1
     RDKit          3D

 19 20  0  0  0  0  0  0  0  0999 V2000
   -8.2945  -15.8167   12.1437 N   0  0  0  0  0  0  0  0  0  0  0  0
   -8.4232  -14.4767   12.0737 C   0  0  0  0  0  0  0  0  0  0  0  0
   -9.5284  -13.9757   11.9921 O   0  0  0  0  0  0  0  0  0  0  0  0
   -7.2243  -13.6196   12.0963 C   0  0  0  0  0  0  0  0  0  0  0  0
   -5.9173  -13.9816   12.3149 C   0  0  0  0  0  0  0  0  0  0  0  0
   -5.1991  -12.8581   12.2374 O   0  0  0  0  0  0  0  0  0  0  0  0
   -5.8691  -11.8822   12.0068 N   0  0  0  0  0  0  0  0  0  0  0  0
   -7.1316  -12.1671   11.8844 C   0  0  0  0  0  0  0  0  0  0  0  0
   -8.2607  -11.2108   11.5968 C   0  0  0  0  0  0  0  0  0  0  0  0
   -5.3971  -15.3684   12.5899 C   0  0  0  0  0  0  0  0  0  0  0  0
   -9.4276  -16.6285   12.1172 C   0  0  0  0  0  0  0  0  0  0  0  0
  -10.6196  -16.3275   12.5602 N   0  0  0  0  0  0  0  0  0  0  0  0
  -11.3967  -17.2405   12.3971 O   0  0  0  0  0  0  0  0  0  0  0  0
  -10.8094  -18.2930   11.8097 C   0  0  0  0  0  0  0  0  0  0  0  0
   -9.5192  -17.9481   11.5984 C   0  0  0  0  0  0  0  0  0  0  0  0
  -11.4617  -19.6038   11.4509 C   0  0  0  0  0  0  0  0  0  0  0  0
  -10.7520  -20.7436   12.1840 C   0  0  0  0  0  0  0  0  0  0  0  0
  -12.9344  -19.5698   11.8642 C   0  0  0  0  0  0  0  0  0  0  0  0
  -11.3604  -19.8270    9.9412 C   0  0  0  0  0  0  0  0  0  0  0  0
  1  2  1  0
  1 11  1  0
  2  3  2  0
  2  4  1  0
  4  5  2  0
  4  8  1  0
  5  6  1  0
  5 10  1  0
  6  7  1  0
  7  8  2  0
  8  9  1  0
 11 12  2  0
 11 15  1  0
 12 13  1  0
 13 14  1  0
 14 15  2  0
 14 16  1  0
 16 17  1  0
 16 18  1  0
 16 19  1  0
M  END
>  <Gold.Gold.Protein.RotatedWaterAtoms>  (186) 


>  <Gold.Id.Protein>  (186) 


>  <Gold.PLP.Chemscore.CHOScore>  (186) 
0.0000

>  <Gold.PLP.Chemscore.Hbond>  (186) 
1.8872

>  <Gold.PLP.Chemscore.Internal.Correction>  (186) 
0.0038

>  <Gold.PLP.Chemscore.Metal>  (186) 
0.0000

>  <Gold.PLP.Fitness>  (186) 
50.9696

>  <Gold.PLP.PLP>  (186) 
-46.8736

>  <Gold.PLP.ligand.clash>  (186) 
1.1401

>  <Gold.PLP.ligand.torsion>  (186) 
0.2147

>  <Gold.PLP.part.buried>  (186) 
-7.4046

>  <Gold.PLP.part.hbond>  (186) 
-5.0546

>  <Gold.PLP.part.metal>  (186) 
0.0000

>  <Gold.PLP.part.nonpolar>  (186) 
-35.1728

>  <Gold.PLP.part.repulsive>  (186) 
1.0154

>  <Gold.Protein.RotatedAtoms>  (186) 


>  <Gold.Protein.RotatedTorsions>  (186) 


>  <Gold.Protein.RotatedWaterAtoms>  (186) 


>  <Gold.Version>  (186) 
5.3.0

>  <PLP.Chemscore.CHOScore>  (186) 


>  <PLP.Chemscore.Hbond>  (186) 


>  <PLP.Chemscore.Internal.Correction>  (186) 


>  <PLP.Chemscore.Metal>  (186) 


>  <PLP.Fitness>  (186) 


>  <PLP.PLP>  (186) 


>  <PLP.ligand.clash>  (186) 


>  <PLP.ligand.torsion>  (186) 


>  <PLP.part.buried>  (186) 


>  <PLP.part.hbond>  (186) 


>  <PLP.part.metal>  (186) 


>  <PLP.part.nonpolar>  (186) 


>  <PLP.part.repulsive>  (186) 


>  <Version>  (186) 


$$$$
3186|Compound_1946|Compounds_3D_F|sdf|568|dock2|1
     RDKit          3D

 19 20  0  0  0  0  0  0  0  0999 V2000
   -8.1243  -15.3886   12.1623 N   0  0  0  0  0  0  0  0  0  0  0  0
   -8.3746  -14.0754   11.9892 C   0  0  0  0  0  0  0  0  0  0  0  0
   -9.5082  -13.6974   11.7634 O   0  0  0  0  0  0  0  0  0  0  0  0
   -7.2740  -13.0987   12.0739 C   0  0  0  0  0  0  0  0  0  0  0  0
   -7.3231  -11.7366   11.9025 C   0  0  0  0  0  0  0  0  0  0  0  0
   -6.0760  -11.2915   12.0773 O   0  0  0  0  0  0  0  0  0  0  0  0
   -5.2893  -12.1710   12.3263 N   0  0  0  0  0  0  0  0  0  0  0  0
   -5.8537  -13.3414   12.3689 C   0  0  0  0  0  0  0  0  0  0  0  0
   -5.1912  -14.6658   12.6504 C   0  0  0  0  0  0  0  0  0  0  0  0
   -8.5399  -10.9094   11.5794 C   0  0  0  0  0  0  0  0  0  0  0  0
   -9.1637  -16.3139   12.0773 C   0  0  0  0  0  0  0  0  0  0  0  0
  -10.3909  -16.1570   12.4983 N   0  0  0  0  0  0  0  0  0  0  0  0
  -11.0625  -17.1400   12.2828 O   0  0  0  0  0  0  0  0  0  0  0  0
  -10.3533  -18.1021   11.6753 C   0  0  0  0  0  0  0  0  0  0  0  0
   -9.1025  -17.6154   11.5108 C   0  0  0  0  0  0  0  0  0  0  0  0
  -10.8540  -19.4601   11.2539 C   0  0  0  0  0  0  0  0  0  0  0  0
  -11.4219  -20.1937   12.4703 C   0  0  0  0  0  0  0  0  0  0  0  0
  -11.9505  -19.2941   10.2000 C   0  0  0  0  0  0  0  0  0  0  0  0
   -9.6977  -20.2691   10.6642 C   0  0  0  0  0  0  0  0  0  0  0  0
  1  2  1  0
  1 11  1  0
  2  3  2  0
  2  4  1  0
  4  5  2  0
  4  8  1  0
  5  6  1  0
  5 10  1  0
  6  7  1  0
  7  8  2  0
  8  9  1  0
 11 12  2  0
 11 15  1  0
 12 13  1  0
 13 14  1  0
 14 15  2  0
 14 16  1  0
 16 17  1  0
 16 18  1  0
 16 19  1  0
M  END
>  <Gold.Gold.Protein.RotatedWaterAtoms>  (187) 


>  <Gold.Id.Protein>  (187) 


>  <Gold.PLP.Chemscore.CHOScore>  (187) 
0.0000

>  <Gold.PLP.Chemscore.Hbond>  (187) 
1.8858

>  <Gold.PLP.Chemscore.Internal.Correction>  (187) 
0.0038

>  <Gold.PLP.Chemscore.Metal>  (187) 
0.0000

>  <Gold.PLP.Fitness>  (187) 
52.2630

>  <Gold.PLP.PLP>  (187) 
-47.2140

>  <Gold.PLP.ligand.clash>  (187) 
0.0000

>  <Gold.PLP.ligand.torsion>  (187) 
0.3060

>  <Gold.PLP.part.buried>  (187) 
-9.0229

>  <Gold.PLP.part.hbond>  (187) 
-3.3955

>  <Gold.PLP.part.metal>  (187) 
0.0000

>  <Gold.PLP.part.nonpolar>  (187) 
-36.4097

>  <Gold.PLP.part.repulsive>  (187) 
1.0325

>  <Gold.Protein.RotatedAtoms>  (187) 


>  <Gold.Protein.RotatedTorsions>  (187) 


>  <Gold.Protein.RotatedWaterAtoms>  (187) 


>  <Gold.Version>  (187) 
5.3.0

>  <PLP.Chemscore.CHOScore>  (187) 


>  <PLP.Chemscore.Hbond>  (187) 


>  <PLP.Chemscore.Internal.Correction>  (187) 


>  <PLP.Chemscore.Metal>  (187) 


>  <PLP.Fitness>  (187) 


>  <PLP.PLP>  (187) 


>  <PLP.ligand.clash>  (187) 


>  <PLP.ligand.torsion>  (187) 


>  <PLP.part.buried>  (187) 


>  <PLP.part.hbond>  (187) 


>  <PLP.part.metal>  (187) 


>  <PLP.part.nonpolar>  (187) 


>  <PLP.part.repulsive>  (187) 


>  <Version>  (187) 


$$$$
3187|Compound_1946|Compounds_3D_F|sdf|568|dock3|1
     RDKit          3D

 19 20  0  0  0  0  0  0  0  0999 V2000
   -8.7644  -16.6334   11.8998 N   0  0  0  0  0  0  0  0  0  0  0  0
   -8.6964  -15.2906   11.9963 C   0  0  0  0  0  0  0  0  0  0  0  0
   -9.7138  -14.6258   11.9536 O   0  0  0  0  0  0  0  0  0  0  0  0
   -7.3886  -14.6290   12.1534 C   0  0  0  0  0  0  0  0  0  0  0  0
   -7.0941  -13.2888   12.0898 C   0  0  0  0  0  0  0  0  0  0  0  0
   -5.7784  -13.1839   12.2943 O   0  0  0  0  0  0  0  0  0  0  0  0
   -5.2397  -14.2484   12.4705 N   0  0  0  0  0  0  0  0  0  0  0  0
   -6.0785  -15.2405   12.4230 C   0  0  0  0  0  0  0  0  0  0  0  0
   -5.7715  -16.7060   12.5971 C   0  0  0  0  0  0  0  0  0  0  0  0
   -8.0611  -12.1616   11.8372 C   0  0  0  0  0  0  0  0  0  0  0  0
  -10.0004  -17.2598   11.7461 C   0  0  0  0  0  0  0  0  0  0  0  0
  -11.0609  -17.0980   12.4924 N   0  0  0  0  0  0  0  0  0  0  0  0
  -11.9824  -17.7808   12.1071 O   0  0  0  0  0  0  0  0  0  0  0  0
  -11.6478  -18.5028   11.0280 C   0  0  0  0  0  0  0  0  0  0  0  0
  -10.3614  -18.1990   10.7429 C   0  0  0  0  0  0  0  0  0  0  0  0
  -12.5343  -19.4629   10.2766 C   0  0  0  0  0  0  0  0  0  0  0  0
  -13.1118  -20.4918   11.2504 C   0  0  0  0  0  0  0  0  0  0  0  0
  -13.6763  -18.6897    9.6143 C   0  0  0  0  0  0  0  0  0  0  0  0
  -11.7141  -20.1805    9.2035 C   0  0  0  0  0  0  0  0  0  0  0  0
  1  2  1  0
  1 11  1  0
  2  3  2  0
  2  4  1  0
  4  5  2  0
  4  8  1  0
  5  6  1  0
  5 10  1  0
  6  7  1  0
  7  8  2  0
  8  9  1  0
 11 12  2  0
 11 15  1  0
 12 13  1  0
 13 14  1  0
 14 15  2  0
 14 16  1  0
 16 17  1  0
 16 18  1  0
 16 19  1  0
M  END
>  <Gold.Gold.Protein.RotatedWaterAtoms>  (188) 


>  <Gold.Id.Protein>  (188) 


>  <Gold.PLP.Chemscore.CHOScore>  (188) 
0.0000

>  <Gold.PLP.Chemscore.Hbond>  (188) 
1.1180

>  <Gold.PLP.Chemscore.Internal.Correction>  (188) 
0.0033

>  <Gold.PLP.Chemscore.Metal>  (188) 
0.0000

>  <Gold.PLP.Fitness>  (188) 
46.2765

>  <Gold.PLP.PLP>  (188) 
-44.1628

>  <Gold.PLP.ligand.clash>  (188) 
0.0000

>  <Gold.PLP.ligand.torsion>  (188) 
0.6218

>  <Gold.PLP.part.buried>  (188) 
-6.1198

>  <Gold.PLP.part.hbond>  (188) 
-4.1267

>  <Gold.PLP.part.metal>  (188) 
0.0000

>  <Gold.PLP.part.nonpolar>  (188) 
-33.7016

>  <Gold.PLP.part.repulsive>  (188) 
0.7969

>  <Gold.Protein.RotatedAtoms>  (188) 


>  <Gold.Protein.RotatedTorsions>  (188) 


>  <Gold.Protein.RotatedWaterAtoms>  (188) 


>  <Gold.Version>  (188) 
5.3.0

>  <PLP.Chemscore.CHOScore>  (188) 


>  <PLP.Chemscore.Hbond>  (188) 


>  <PLP.Chemscore.Internal.Correction>  (188) 


>  <PLP.Chemscore.Metal>  (188) 


>  <PLP.Fitness>  (188) 


>  <PLP.PLP>  (188) 


>  <PLP.ligand.clash>  (188) 


>  <PLP.ligand.torsion>  (188) 


>  <PLP.part.buried>  (188) 


>  <PLP.part.hbond>  (188) 


>  <PLP.part.metal>  (188) 


>  <PLP.part.nonpolar>  (188) 


>  <PLP.part.repulsive>  (188) 


>  <Version>  (188) 


$$$$
3188|Compound_1946|Compounds_3D_F|sdf|568|dock4|1
     RDKit          3D

 19 20  0  0  0  0  0  0  0  0999 V2000
   -8.7560  -16.8120   11.6012 N   0  0  0  0  0  0  0  0  0  0  0  0
   -8.6855  -15.5091   11.9399 C   0  0  0  0  0  0  0  0  0  0  0  0
   -9.7042  -14.8828   12.1615 O   0  0  0  0  0  0  0  0  0  0  0  0
   -7.3738  -14.8447   12.0414 C   0  0  0  0  0  0  0  0  0  0  0  0
   -7.0889  -13.5015   11.9977 C   0  0  0  0  0  0  0  0  0  0  0  0
   -5.7642  -13.3947   12.1310 O   0  0  0  0  0  0  0  0  0  0  0  0
   -5.2121  -14.4605   12.2478 N   0  0  0  0  0  0  0  0  0  0  0  0
   -6.0480  -15.4558   12.2206 C   0  0  0  0  0  0  0  0  0  0  0  0
   -5.7257  -16.9236   12.3374 C   0  0  0  0  0  0  0  0  0  0  0  0
   -8.0732  -12.3735   11.8303 C   0  0  0  0  0  0  0  0  0  0  0  0
   -9.9965  -17.4402   11.4999 C   0  0  0  0  0  0  0  0  0  0  0  0
  -11.0280  -17.2722   12.2845 N   0  0  0  0  0  0  0  0  0  0  0  0
  -11.9630  -17.9587   11.9404 O   0  0  0  0  0  0  0  0  0  0  0  0
  -11.6690  -18.6900   10.8558 C   0  0  0  0  0  0  0  0  0  0  0  0
  -10.3946  -18.3883   10.5195 C   0  0  0  0  0  0  0  0  0  0  0  0
  -12.5827  -19.6571   10.1471 C   0  0  0  0  0  0  0  0  0  0  0  0
  -11.8032  -20.3836    9.0494 C   0  0  0  0  0  0  0  0  0  0  0  0
  -13.1218  -20.6777   11.1513 C   0  0  0  0  0  0  0  0  0  0  0  0
  -13.7496  -18.8907    9.5221 C   0  0  0  0  0  0  0  0  0  0  0  0
  1  2  1  0
  1 11  1  0
  2  3  2  0
  2  4  1  0
  4  5  2  0
  4  8  1  0
  5  6  1  0
  5 10  1  0
  6  7  1  0
  7  8  2  0
  8  9  1  0
 11 12  2  0
 11 15  1  0
 12 13  1  0
 13 14  1  0
 14 15  2  0
 14 16  1  0
 16 17  1  0
 16 18  1  0
 16 19  1  0
M  END
>  <Gold.Gold.Protein.RotatedWaterAtoms>  (189) 


>  <Gold.Id.Protein>  (189) 


>  <Gold.PLP.Chemscore.CHOScore>  (189) 
0.0000

>  <Gold.PLP.Chemscore.Hbond>  (189) 
1.2781

>  <Gold.PLP.Chemscore.Internal.Correction>  (189) 
0.0033

>  <Gold.PLP.Chemscore.Metal>  (189) 
0.0000

>  <Gold.PLP.Fitness>  (189) 
46.0122

>  <Gold.PLP.PLP>  (189) 
-43.3529

>  <Gold.PLP.ligand.clash>  (189) 
0.0000

>  <Gold.PLP.ligand.torsion>  (189) 
0.5891

>  <Gold.PLP.part.buried>  (189) 
-7.7159

>  <Gold.PLP.part.hbond>  (189) 
-3.8156

>  <Gold.PLP.part.metal>  (189) 
0.0000

>  <Gold.PLP.part.nonpolar>  (189) 
-31.8381

>  <Gold.PLP.part.repulsive>  (189) 
0.7009

>  <Gold.Protein.RotatedAtoms>  (189) 


>  <Gold.Protein.RotatedTorsions>  (189) 


>  <Gold.Protein.RotatedWaterAtoms>  (189) 


>  <Gold.Version>  (189) 
5.3.0

>  <PLP.Chemscore.CHOScore>  (189) 


>  <PLP.Chemscore.Hbond>  (189) 


>  <PLP.Chemscore.Internal.Correction>  (189) 


>  <PLP.Chemscore.Metal>  (189) 


>  <PLP.Fitness>  (189) 


>  <PLP.PLP>  (189) 


>  <PLP.ligand.clash>  (189) 


>  <PLP.ligand.torsion>  (189) 


>  <PLP.part.buried>  (189) 


>  <PLP.part.hbond>  (189) 


>  <PLP.part.metal>  (189) 


>  <PLP.part.nonpolar>  (189) 


>  <PLP.part.repulsive>  (189) 


>  <Version>  (189) 


$$$$
3189|Compound_1946|Compounds_3D_F|sdf|568|dock5|1
     RDKit          3D

 19 20  0  0  0  0  0  0  0  0999 V2000
   -8.2346  -15.6966   12.0236 N   0  0  0  0  0  0  0  0  0  0  0  0
   -8.4437  -14.3659   12.0738 C   0  0  0  0  0  0  0  0  0  0  0  0
   -9.5777  -13.9308   12.1360 O   0  0  0  0  0  0  0  0  0  0  0  0
   -7.2977  -13.4392   12.0536 C   0  0  0  0  0  0  0  0  0  0  0  0
   -7.2992  -12.0803   11.8527 C   0  0  0  0  0  0  0  0  0  0  0  0
   -6.0240  -11.6893   11.9246 O   0  0  0  0  0  0  0  0  0  0  0  0
   -5.2607  -12.5985   12.1370 N   0  0  0  0  0  0  0  0  0  0  0  0
   -5.8716  -13.7405   12.2497 C   0  0  0  0  0  0  0  0  0  0  0  0
   -5.2493  -15.0877   12.5146 C   0  0  0  0  0  0  0  0  0  0  0  0
   -8.4988  -11.2051   11.5992 C   0  0  0  0  0  0  0  0  0  0  0  0
   -9.3180  -16.5739   12.0375 C   0  0  0  0  0  0  0  0  0  0  0  0
  -10.5261  -16.3229   12.4680 N   0  0  0  0  0  0  0  0  0  0  0  0
  -11.2481  -17.2865   12.3495 O   0  0  0  0  0  0  0  0  0  0  0  0
  -10.5995  -18.3293   11.8113 C   0  0  0  0  0  0  0  0  0  0  0  0
   -9.3316  -17.9196   11.5816 C   0  0  0  0  0  0  0  0  0  0  0  0
  -11.1734  -19.6915   11.5159 C   0  0  0  0  0  0  0  0  0  0  0  0
  -11.7242  -20.3030   12.8055 C   0  0  0  0  0  0  0  0  0  0  0  0
  -12.3019  -19.5577   10.4917 C   0  0  0  0  0  0  0  0  0  0  0  0
  -10.0761  -20.5951   10.9511 C   0  0  0  0  0  0  0  0  0  0  0  0
  1  2  1  0
  1 11  1  0
  2  3  2  0
  2  4  1  0
  4  5  2  0
  4  8  1  0
  5  6  1  0
  5 10  1  0
  6  7  1  0
  7  8  2  0
  8  9  1  0
 11 12  2  0
 11 15  1  0
 12 13  1  0
 13 14  1  0
 14 15  2  0
 14 16  1  0
 16 17  1  0
 16 18  1  0
 16 19  1  0
M  END
>  <Gold.Gold.Protein.RotatedWaterAtoms>  (190) 


>  <Gold.Id.Protein>  (190) 


>  <Gold.PLP.Chemscore.CHOScore>  (190) 
0.0000

>  <Gold.PLP.Chemscore.Hbond>  (190) 
2.0172

>  <Gold.PLP.Chemscore.Internal.Correction>  (190) 
0.0033

>  <Gold.PLP.Chemscore.Metal>  (190) 
0.0000

>  <Gold.PLP.Fitness>  (190) 
52.1801

>  <Gold.PLP.PLP>  (190) 
-46.5075

>  <Gold.PLP.ligand.clash>  (190) 
0.0000

>  <Gold.PLP.ligand.torsion>  (190) 
0.1911

>  <Gold.PLP.part.buried>  (190) 
-7.0959

>  <Gold.PLP.part.hbond>  (190) 
-4.8042

>  <Gold.PLP.part.metal>  (190) 
0.0000

>  <Gold.PLP.part.nonpolar>  (190) 
-34.6352

>  <Gold.PLP.part.repulsive>  (190) 
0.9740

>  <Gold.Protein.RotatedAtoms>  (190) 


>  <Gold.Protein.RotatedTorsions>  (190) 


>  <Gold.Protein.RotatedWaterAtoms>  (190) 


>  <Gold.Version>  (190) 
5.3.0

>  <PLP.Chemscore.CHOScore>  (190) 


>  <PLP.Chemscore.Hbond>  (190) 


>  <PLP.Chemscore.Internal.Correction>  (190) 


>  <PLP.Chemscore.Metal>  (190) 


>  <PLP.Fitness>  (190) 


>  <PLP.PLP>  (190) 


>  <PLP.ligand.clash>  (190) 


>  <PLP.ligand.torsion>  (190) 


>  <PLP.part.buried>  (190) 


>  <PLP.part.hbond>  (190) 


>  <PLP.part.metal>  (190) 


>  <PLP.part.nonpolar>  (190) 


>  <PLP.part.repulsive>  (190) 


>  <Version>  (190) 


$$$$
3190|Compound_1946|Compounds_3D_F|sdf|568|dock6|1
     RDKit          3D

 19 20  0  0  0  0  0  0  0  0999 V2000
   -8.2881  -15.7671   11.9927 N   0  0  0  0  0  0  0  0  0  0  0  0
   -8.4569  -14.4358   12.1203 C   0  0  0  0  0  0  0  0  0  0  0  0
   -9.5730  -13.9761   12.2691 O   0  0  0  0  0  0  0  0  0  0  0  0
   -7.2885  -13.5382   12.0794 C   0  0  0  0  0  0  0  0  0  0  0  0
   -5.9613  -13.8528   12.2421 C   0  0  0  0  0  0  0  0  0  0  0  0
   -5.2865  -12.7066   12.1203 O   0  0  0  0  0  0  0  0  0  0  0  0
   -5.9995  -11.7569   11.9102 N   0  0  0  0  0  0  0  0  0  0  0  0
   -7.2557  -12.0861   11.8483 C   0  0  0  0  0  0  0  0  0  0  0  0
   -8.4290  -11.1723   11.6024 C   0  0  0  0  0  0  0  0  0  0  0  0
   -5.3816  -15.2177   12.5076 C   0  0  0  0  0  0  0  0  0  0  0  0
   -9.3931  -16.6166   12.0261 C   0  0  0  0  0  0  0  0  0  0  0  0
  -10.5810  -16.3414   12.4960 N   0  0  0  0  0  0  0  0  0  0  0  0
  -11.3309  -17.2844   12.3851 O   0  0  0  0  0  0  0  0  0  0  0  0
  -10.7257  -18.3350   11.8125 C   0  0  0  0  0  0  0  0  0  0  0  0
   -9.4549  -17.9542   11.5511 C   0  0  0  0  0  0  0  0  0  0  0  0
  -11.3432  -19.6774   11.5144 C   0  0  0  0  0  0  0  0  0  0  0  0
  -12.7935  -19.6906   12.0009 C   0  0  0  0  0  0  0  0  0  0  0  0
  -11.3083  -19.9305   10.0060 C   0  0  0  0  0  0  0  0  0  0  0  0
  -10.5538  -20.7723   12.2339 C   0  0  0  0  0  0  0  0  0  0  0  0
  1  2  1  0
  1 11  1  0
  2  3  2  0
  2  4  1  0
  4  5  2  0
  4  8  1  0
  5  6  1  0
  5 10  1  0
  6  7  1  0
  7  8  2  0
  8  9  1  0
 11 12  2  0
 11 15  1  0
 12 13  1  0
 13 14  1  0
 14 15  2  0
 14 16  1  0
 16 17  1  0
 16 18  1  0
 16 19  1  0
M  END
>  <Gold.Gold.Protein.RotatedWaterAtoms>  (191) 


>  <Gold.Id.Protein>  (191) 


>  <Gold.PLP.Chemscore.CHOScore>  (191) 
0.0000

>  <Gold.PLP.Chemscore.Hbond>  (191) 
2.0510

>  <Gold.PLP.Chemscore.Internal.Correction>  (191) 
0.0033

>  <Gold.PLP.Chemscore.Metal>  (191) 
0.0000

>  <Gold.PLP.Fitness>  (191) 
52.4273

>  <Gold.PLP.PLP>  (191) 
-46.7029

>  <Gold.PLP.ligand.clash>  (191) 
0.0000

>  <Gold.PLP.ligand.torsion>  (191) 
0.2159

>  <Gold.PLP.part.buried>  (191) 
-6.4807

>  <Gold.PLP.part.hbond>  (191) 
-5.1974

>  <Gold.PLP.part.metal>  (191) 
0.0000

>  <Gold.PLP.part.nonpolar>  (191) 
-34.7886

>  <Gold.PLP.part.repulsive>  (191) 
0.9665

>  <Gold.Protein.RotatedAtoms>  (191) 


>  <Gold.Protein.RotatedTorsions>  (191) 


>  <Gold.Protein.RotatedWaterAtoms>  (191) 


>  <Gold.Version>  (191) 
5.3.0

>  <PLP.Chemscore.CHOScore>  (191) 


>  <PLP.Chemscore.Hbond>  (191) 


>  <PLP.Chemscore.Internal.Correction>  (191) 


>  <PLP.Chemscore.Metal>  (191) 


>  <PLP.Fitness>  (191) 


>  <PLP.PLP>  (191) 


>  <PLP.ligand.clash>  (191) 


>  <PLP.ligand.torsion>  (191) 


>  <PLP.part.buried>  (191) 


>  <PLP.part.hbond>  (191) 


>  <PLP.part.metal>  (191) 


>  <PLP.part.nonpolar>  (191) 


>  <PLP.part.repulsive>  (191) 


>  <Version>  (191) 


$$$$
3191|Compound_1946|Compounds_3D_F|sdf|568|dock7|1
     RDKit          3D

 19 20  0  0  0  0  0  0  0  0999 V2000
   -8.3363  -15.6265   11.9391 N   0  0  0  0  0  0  0  0  0  0  0  0
   -8.5265  -14.3127   12.1735 C   0  0  0  0  0  0  0  0  0  0  0  0
   -9.6385  -13.8971   12.4376 O   0  0  0  0  0  0  0  0  0  0  0  0
   -7.3863  -13.3809   12.1097 C   0  0  0  0  0  0  0  0  0  0  0  0
   -6.0491  -13.6519   12.2700 C   0  0  0  0  0  0  0  0  0  0  0  0
   -5.4104  -12.4880   12.1238 O   0  0  0  0  0  0  0  0  0  0  0  0
   -6.1533  -11.5644   11.9012 N   0  0  0  0  0  0  0  0  0  0  0  0
   -7.3991  -11.9328   11.8527 C   0  0  0  0  0  0  0  0  0  0  0  0
   -8.6011  -11.0597   11.5976 C   0  0  0  0  0  0  0  0  0  0  0  0
   -5.4266  -14.9935   12.5562 C   0  0  0  0  0  0  0  0  0  0  0  0
   -9.4150  -16.5080   11.9941 C   0  0  0  0  0  0  0  0  0  0  0  0
  -10.5967  -16.2722   12.4998 N   0  0  0  0  0  0  0  0  0  0  0  0
  -11.3220  -17.2354   12.3997 O   0  0  0  0  0  0  0  0  0  0  0  0
  -10.7031  -18.2623   11.7995 C   0  0  0  0  0  0  0  0  0  0  0  0
   -9.4516  -17.8422   11.5070 C   0  0  0  0  0  0  0  0  0  0  0  0
  -11.2897  -19.6192   11.5045 C   0  0  0  0  0  0  0  0  0  0  0  0
  -10.4410  -20.6988   12.1786 C   0  0  0  0  0  0  0  0  0  0  0  0
  -12.7201  -19.6838   12.0436 C   0  0  0  0  0  0  0  0  0  0  0  0
  -11.3032  -19.8508    9.9927 C   0  0  0  0  0  0  0  0  0  0  0  0
  1  2  1  0
  1 11  1  0
  2  3  2  0
  2  4  1  0
  4  5  2  0
  4  8  1  0
  5  6  1  0
  5 10  1  0
  6  7  1  0
  7  8  2  0
  8  9  1  0
 11 12  2  0
 11 15  1  0
 12 13  1  0
 13 14  1  0
 14 15  2  0
 14 16  1  0
 16 17  1  0
 16 18  1  0
 16 19  1  0
M  END
>  <Gold.Gold.Protein.RotatedWaterAtoms>  (192) 


>  <Gold.Id.Protein>  (192) 


>  <Gold.PLP.Chemscore.CHOScore>  (192) 
0.0000

>  <Gold.PLP.Chemscore.Hbond>  (192) 
2.0851

>  <Gold.PLP.Chemscore.Internal.Correction>  (192) 
0.0033

>  <Gold.PLP.Chemscore.Metal>  (192) 
0.0000

>  <Gold.PLP.Fitness>  (192) 
51.6303

>  <Gold.PLP.PLP>  (192) 
-45.9767

>  <Gold.PLP.ligand.clash>  (192) 
0.0000

>  <Gold.PLP.ligand.torsion>  (192) 
0.3025

>  <Gold.PLP.part.buried>  (192) 
-6.0296

>  <Gold.PLP.part.hbond>  (192) 
-4.9233

>  <Gold.PLP.part.metal>  (192) 
0.0000

>  <Gold.PLP.part.nonpolar>  (192) 
-34.7235

>  <Gold.PLP.part.repulsive>  (192) 
0.9465

>  <Gold.Protein.RotatedAtoms>  (192) 


>  <Gold.Protein.RotatedTorsions>  (192) 


>  <Gold.Protein.RotatedWaterAtoms>  (192) 


>  <Gold.Version>  (192) 
5.3.0

>  <PLP.Chemscore.CHOScore>  (192) 


>  <PLP.Chemscore.Hbond>  (192) 


>  <PLP.Chemscore.Internal.Correction>  (192) 


>  <PLP.Chemscore.Metal>  (192) 


>  <PLP.Fitness>  (192) 


>  <PLP.PLP>  (192) 


>  <PLP.ligand.clash>  (192) 


>  <PLP.ligand.torsion>  (192) 


>  <PLP.part.buried>  (192) 


>  <PLP.part.hbond>  (192) 


>  <PLP.part.metal>  (192) 


>  <PLP.part.nonpolar>  (192) 


>  <PLP.part.repulsive>  (192) 


>  <Version>  (192) 


$$$$
3192|Compound_1946|Compounds_3D_F|sdf|568|dock8|1
     RDKit          3D

 19 20  0  0  0  0  0  0  0  0999 V2000
   -8.7194  -16.9045   11.6787 N   0  0  0  0  0  0  0  0  0  0  0  0
   -8.6628  -15.5864   11.9552 C   0  0  0  0  0  0  0  0  0  0  0  0
   -9.6898  -14.9483   12.0863 O   0  0  0  0  0  0  0  0  0  0  0  0
   -7.3562  -14.9196   12.0985 C   0  0  0  0  0  0  0  0  0  0  0  0
   -7.0767  -13.5746   12.0959 C   0  0  0  0  0  0  0  0  0  0  0  0
   -5.7551  -13.4660   12.2564 O   0  0  0  0  0  0  0  0  0  0  0  0
   -5.2004  -14.5323   12.3550 N   0  0  0  0  0  0  0  0  0  0  0  0
   -6.0312  -15.5298   12.2858 C   0  0  0  0  0  0  0  0  0  0  0  0
   -5.7044  -16.9990   12.3694 C   0  0  0  0  0  0  0  0  0  0  0  0
   -8.0629  -12.4465   11.9405 C   0  0  0  0  0  0  0  0  0  0  0  0
   -9.9547  -17.5353   11.5378 C   0  0  0  0  0  0  0  0  0  0  0  0
  -11.0504  -17.2725   12.1998 N   0  0  0  0  0  0  0  0  0  0  0  0
  -11.9604  -17.9907   11.8536 O   0  0  0  0  0  0  0  0  0  0  0  0
  -11.5803  -18.8451   10.8927 C   0  0  0  0  0  0  0  0  0  0  0  0
  -10.2764  -18.5900   10.6418 C   0  0  0  0  0  0  0  0  0  0  0  0
  -12.4403  -19.8847   10.2204 C   0  0  0  0  0  0  0  0  0  0  0  0
  -13.6126  -19.1987    9.5167 C   0  0  0  0  0  0  0  0  0  0  0  0
  -11.6045  -20.6496    9.1922 C   0  0  0  0  0  0  0  0  0  0  0  0
  -12.9753  -20.8599   11.2702 C   0  0  0  0  0  0  0  0  0  0  0  0
  1  2  1  0
  1 11  1  0
  2  3  2  0
  2  4  1  0
  4  5  2  0
  4  8  1  0
  5  6  1  0
  5 10  1  0
  6  7  1  0
  7  8  2  0
  8  9  1  0
 11 12  2  0
 11 15  1  0
 12 13  1  0
 13 14  1  0
 14 15  2  0
 14 16  1  0
 16 17  1  0
 16 18  1  0
 16 19  1  0
M  END
>  <Gold.Gold.Protein.RotatedWaterAtoms>  (193) 


>  <Gold.Id.Protein>  (193) 


>  <Gold.PLP.Chemscore.CHOScore>  (193) 
0.0000

>  <Gold.PLP.Chemscore.Hbond>  (193) 
1.3981

>  <Gold.PLP.Chemscore.Internal.Correction>  (193) 
0.0033

>  <Gold.PLP.Chemscore.Metal>  (193) 
0.0000

>  <Gold.PLP.Fitness>  (193) 
46.1955

>  <Gold.PLP.PLP>  (193) 
-42.7108

>  <Gold.PLP.ligand.clash>  (193) 
0.0000

>  <Gold.PLP.ligand.torsion>  (193) 
0.3565

>  <Gold.PLP.part.buried>  (193) 
-8.1912

>  <Gold.PLP.part.hbond>  (193) 
-3.5326

>  <Gold.PLP.part.metal>  (193) 
0.0000

>  <Gold.PLP.part.nonpolar>  (193) 
-31.2733

>  <Gold.PLP.part.repulsive>  (193) 
0.6972

>  <Gold.Protein.RotatedAtoms>  (193) 


>  <Gold.Protein.RotatedTorsions>  (193) 


>  <Gold.Protein.RotatedWaterAtoms>  (193) 


>  <Gold.Version>  (193) 
5.3.0

>  <PLP.Chemscore.CHOScore>  (193) 


>  <PLP.Chemscore.Hbond>  (193) 


>  <PLP.Chemscore.Internal.Correction>  (193) 


>  <PLP.Chemscore.Metal>  (193) 


>  <PLP.Fitness>  (193) 


>  <PLP.PLP>  (193) 


>  <PLP.ligand.clash>  (193) 


>  <PLP.ligand.torsion>  (193) 


>  <PLP.part.buried>  (193) 


>  <PLP.part.hbond>  (193) 


>  <PLP.part.metal>  (193) 


>  <PLP.part.nonpolar>  (193) 


>  <PLP.part.repulsive>  (193) 


>  <Version>  (193) 


$$$$
3193|Compound_1946|Compounds_3D_F|sdf|568|dock9|1
     RDKit          3D

 19 20  0  0  0  0  0  0  0  0999 V2000
   -8.6123  -16.5767   11.6661 N   0  0  0  0  0  0  0  0  0  0  0  0
   -8.6386  -15.2536   11.9229 C   0  0  0  0  0  0  0  0  0  0  0  0
   -9.7035  -14.6796   12.0469 O   0  0  0  0  0  0  0  0  0  0  0  0
   -7.3764  -14.5037   12.0534 C   0  0  0  0  0  0  0  0  0  0  0  0
   -6.1187  -14.9851   12.3242 C   0  0  0  0  0  0  0  0  0  0  0  0
   -5.3070  -13.9245   12.3420 O   0  0  0  0  0  0  0  0  0  0  0  0
   -5.8796  -12.8857   12.1244 N   0  0  0  0  0  0  0  0  0  0  0  0
   -7.1520  -13.0563   11.9196 C   0  0  0  0  0  0  0  0  0  0  0  0
   -8.1798  -11.9953   11.6194 C   0  0  0  0  0  0  0  0  0  0  0  0
   -5.7315  -16.4222   12.5573 C   0  0  0  0  0  0  0  0  0  0  0  0
   -9.8055  -17.2860   11.5375 C   0  0  0  0  0  0  0  0  0  0  0  0
  -10.8941  -17.1258   12.2426 N   0  0  0  0  0  0  0  0  0  0  0  0
  -11.7639  -17.8919   11.8954 O   0  0  0  0  0  0  0  0  0  0  0  0
  -11.3583  -18.6802   10.8895 C   0  0  0  0  0  0  0  0  0  0  0  0
  -10.0839  -18.3254   10.6096 C   0  0  0  0  0  0  0  0  0  0  0  0
  -12.1670  -19.7505   10.2020 C   0  0  0  0  0  0  0  0  0  0  0  0
  -12.6534  -20.7659   11.2376 C   0  0  0  0  0  0  0  0  0  0  0  0
  -13.3718  -19.1119    9.5082 C   0  0  0  0  0  0  0  0  0  0  0  0
  -11.2961  -20.4588    9.1631 C   0  0  0  0  0  0  0  0  0  0  0  0
  1  2  1  0
  1 11  1  0
  2  3  2  0
  2  4  1  0
  4  5  2  0
  4  8  1  0
  5  6  1  0
  5 10  1  0
  6  7  1  0
  7  8  2  0
  8  9  1  0
 11 12  2  0
 11 15  1  0
 12 13  1  0
 13 14  1  0
 14 15  2  0
 14 16  1  0
 16 17  1  0
 16 18  1  0
 16 19  1  0
M  END
>  <Gold.Gold.Protein.RotatedWaterAtoms>  (194) 


>  <Gold.Id.Protein>  (194) 


>  <Gold.PLP.Chemscore.CHOScore>  (194) 
0.0000

>  <Gold.PLP.Chemscore.Hbond>  (194) 
0.9590

>  <Gold.PLP.Chemscore.Internal.Correction>  (194) 
0.0033

>  <Gold.PLP.Chemscore.Metal>  (194) 
0.0000

>  <Gold.PLP.Fitness>  (194) 
45.9739

>  <Gold.PLP.PLP>  (194) 
-44.1133

>  <Gold.PLP.ligand.clash>  (194) 
0.0000

>  <Gold.PLP.ligand.torsion>  (194) 
0.5098

>  <Gold.PLP.part.buried>  (194) 
-8.0833

>  <Gold.PLP.part.hbond>  (194) 
-3.5447

>  <Gold.PLP.part.metal>  (194) 
0.0000

>  <Gold.PLP.part.nonpolar>  (194) 
-31.5811

>  <Gold.PLP.part.repulsive>  (194) 
0.7458

>  <Gold.Protein.RotatedAtoms>  (194) 


>  <Gold.Protein.RotatedTorsions>  (194) 


>  <Gold.Protein.RotatedWaterAtoms>  (194) 


>  <Gold.Version>  (194) 
5.3.0

>  <PLP.Chemscore.CHOScore>  (194) 


>  <PLP.Chemscore.Hbond>  (194) 


>  <PLP.Chemscore.Internal.Correction>  (194) 


>  <PLP.Chemscore.Metal>  (194) 


>  <PLP.Fitness>  (194) 


>  <PLP.PLP>  (194) 


>  <PLP.ligand.clash>  (194) 


>  <PLP.ligand.torsion>  (194) 


>  <PLP.part.buried>  (194) 


>  <PLP.part.hbond>  (194) 


>  <PLP.part.metal>  (194) 


>  <PLP.part.nonpolar>  (194) 


>  <PLP.part.repulsive>  (194) 


>  <Version>  (194) 


$$$$
3194|Compound_1949|Compounds_3D_F|sdf|569|dock1|1
     RDKit          3D

 20 21  0  0  0  0  0  0  0  0999 V2000
   -8.2406  -15.7463   12.1059 N   0  0  0  0  0  0  0  0  0  0  0  0
   -8.3997  -14.4211   11.9170 C   0  0  0  0  0  0  0  0  0  0  0  0
   -9.5008  -13.9709   11.6690 O   0  0  0  0  0  0  0  0  0  0  0  0
   -7.2382  -13.5201   12.0115 C   0  0  0  0  0  0  0  0  0  0  0  0
   -7.2014  -12.1527   11.8792 C   0  0  0  0  0  0  0  0  0  0  0  0
   -5.9258  -11.7934   12.0457 O   0  0  0  0  0  0  0  0  0  0  0  0
   -5.1937  -12.7283   12.2567 N   0  0  0  0  0  0  0  0  0  0  0  0
   -5.8315  -13.8610   12.2754 C   0  0  0  0  0  0  0  0  0  0  0  0
   -5.2515  -15.2327   12.5083 C   0  0  0  0  0  0  0  0  0  0  0  0
   -8.3671  -11.2403   11.5998 C   0  0  0  0  0  0  0  0  0  0  0  0
   -9.3244  -16.5893   12.0129 C   0  0  0  0  0  0  0  0  0  0  0  0
   -9.3680  -17.8440   11.3977 C   0  0  0  0  0  0  0  0  0  0  0  0
  -10.7176  -18.2581   11.5990 C   0  0  0  0  0  0  0  0  0  0  0  0
  -11.2989  -17.3007   12.2547 N   0  0  0  0  0  0  0  0  0  0  0  0
  -10.5561  -16.3808   12.4974 O   0  0  0  0  0  0  0  0  0  0  0  0
   -8.2877  -18.5594   10.7108 C   0  0  0  0  0  0  0  0  0  0  0  0
   -8.5450  -19.5095    9.9963 O   0  0  0  0  0  0  0  0  0  0  0  0
   -7.0089  -18.1631   10.8702 O   0  0  0  0  0  0  0  0  0  0  0  0
   -5.9933  -18.9039   10.1439 C   0  0  0  0  0  0  0  0  0  0  0  0
   -4.6108  -18.5577   10.7025 C   0  0  0  0  0  0  0  0  0  0  0  0
  1  2  1  0
  1 11  1  0
  2  3  2  0
  2  4  1  0
  4  5  2  0
  4  8  1  0
  5  6  1  0
  5 10  1  0
  6  7  1  0
  7  8  2  0
  8  9  1  0
 11 12  2  0
 11 15  1  0
 12 13  1  0
 12 16  1  0
 13 14  2  0
 14 15  1  0
 16 17  2  0
 16 18  1  0
 18 19  1  0
 19 20  1  0
M  END
>  <Gold.Gold.Protein.RotatedWaterAtoms>  (195) 


>  <Gold.Id.Protein>  (195) 


>  <Gold.PLP.Chemscore.CHOScore>  (195) 
0.0000

>  <Gold.PLP.Chemscore.Hbond>  (195) 
1.4796

>  <Gold.PLP.Chemscore.Internal.Correction>  (195) 
0.0107

>  <Gold.PLP.Chemscore.Metal>  (195) 
0.0000

>  <Gold.PLP.Fitness>  (195) 
49.7427

>  <Gold.PLP.PLP>  (195) 
-46.2622

>  <Gold.PLP.ligand.clash>  (195) 
0.0000

>  <Gold.PLP.ligand.torsion>  (195) 
0.4845

>  <Gold.PLP.part.buried>  (195) 
-8.2531

>  <Gold.PLP.part.hbond>  (195) 
-4.4304

>  <Gold.PLP.part.metal>  (195) 
0.0000

>  <Gold.PLP.part.nonpolar>  (195) 
-33.0558

>  <Gold.PLP.part.repulsive>  (195) 
0.9985

>  <Gold.Protein.RotatedAtoms>  (195) 


>  <Gold.Protein.RotatedTorsions>  (195) 


>  <Gold.Protein.RotatedWaterAtoms>  (195) 


>  <Gold.Version>  (195) 
5.3.0

>  <PLP.Chemscore.CHOScore>  (195) 


>  <PLP.Chemscore.Hbond>  (195) 


>  <PLP.Chemscore.Internal.Correction>  (195) 


>  <PLP.Chemscore.Metal>  (195) 


>  <PLP.Fitness>  (195) 


>  <PLP.PLP>  (195) 


>  <PLP.ligand.clash>  (195) 


>  <PLP.ligand.torsion>  (195) 


>  <PLP.part.buried>  (195) 


>  <PLP.part.hbond>  (195) 


>  <PLP.part.metal>  (195) 


>  <PLP.part.nonpolar>  (195) 


>  <PLP.part.repulsive>  (195) 


>  <Version>  (195) 


$$$$
3195|Compound_1949|Compounds_3D_F|sdf|569|dock2|1
     RDKit          3D

 20 21  0  0  0  0  0  0  0  0999 V2000
   -8.4871  -16.5974   11.8103 N   0  0  0  0  0  0  0  0  0  0  0  0
   -8.5619  -15.2561   11.9212 C   0  0  0  0  0  0  0  0  0  0  0  0
   -9.6463  -14.7084   11.9482 O   0  0  0  0  0  0  0  0  0  0  0  0
   -7.3285  -14.4555   12.0097 C   0  0  0  0  0  0  0  0  0  0  0  0
   -7.1781  -13.0959   11.8776 C   0  0  0  0  0  0  0  0  0  0  0  0
   -5.8760  -12.8449   12.0373 O   0  0  0  0  0  0  0  0  0  0  0  0
   -5.2236  -13.8380   12.2438 N   0  0  0  0  0  0  0  0  0  0  0  0
   -5.9539  -14.9133   12.2657 C   0  0  0  0  0  0  0  0  0  0  0  0
   -5.4896  -16.3290   12.4949 C   0  0  0  0  0  0  0  0  0  0  0  0
   -8.2648  -12.0889   11.6050 C   0  0  0  0  0  0  0  0  0  0  0  0
   -9.6390  -17.3456   11.7227 C   0  0  0  0  0  0  0  0  0  0  0  0
   -9.7981  -18.5791   11.0842 C   0  0  0  0  0  0  0  0  0  0  0  0
  -11.1737  -18.8840   11.3045 C   0  0  0  0  0  0  0  0  0  0  0  0
  -11.6611  -17.8958   11.9902 N   0  0  0  0  0  0  0  0  0  0  0  0
  -10.8399  -17.0459   12.2358 O   0  0  0  0  0  0  0  0  0  0  0  0
   -8.7940  -19.3670   10.3620 C   0  0  0  0  0  0  0  0  0  0  0  0
   -9.0959  -20.4416    9.8788 O   0  0  0  0  0  0  0  0  0  0  0  0
   -7.5361  -18.8994   10.2322 O   0  0  0  0  0  0  0  0  0  0  0  0
   -6.5378  -19.8236    9.7253 C   0  0  0  0  0  0  0  0  0  0  0  0
   -5.1393  -19.2574    9.9837 C   0  0  0  0  0  0  0  0  0  0  0  0
  1  2  1  0
  1 11  1  0
  2  3  2  0
  2  4  1  0
  4  5  2  0
  4  8  1  0
  5  6  1  0
  5 10  1  0
  6  7  1  0
  7  8  2  0
  8  9  1  0
 11 12  2  0
 11 15  1  0
 12 13  1  0
 12 16  1  0
 13 14  2  0
 14 15  1  0
 16 17  2  0
 16 18  1  0
 18 19  1  0
 19 20  1  0
M  END
>  <Gold.Gold.Protein.RotatedWaterAtoms>  (196) 


>  <Gold.Id.Protein>  (196) 


>  <Gold.PLP.Chemscore.CHOScore>  (196) 
0.0000

>  <Gold.PLP.Chemscore.Hbond>  (196) 
1.0000

>  <Gold.PLP.Chemscore.Internal.Correction>  (196) 
0.0107

>  <Gold.PLP.Chemscore.Metal>  (196) 
0.0000

>  <Gold.PLP.Fitness>  (196) 
45.7013

>  <Gold.PLP.PLP>  (196) 
-43.5218

>  <Gold.PLP.ligand.clash>  (196) 
0.0000

>  <Gold.PLP.ligand.torsion>  (196) 
0.4156

>  <Gold.PLP.part.buried>  (196) 
-9.2310

>  <Gold.PLP.part.hbond>  (196) 
-3.9390

>  <Gold.PLP.part.metal>  (196) 
0.0000

>  <Gold.PLP.part.nonpolar>  (196) 
-30.1252

>  <Gold.PLP.part.repulsive>  (196) 
0.7735

>  <Gold.Protein.RotatedAtoms>  (196) 


>  <Gold.Protein.RotatedTorsions>  (196) 


>  <Gold.Protein.RotatedWaterAtoms>  (196) 


>  <Gold.Version>  (196) 
5.3.0

>  <PLP.Chemscore.CHOScore>  (196) 


>  <PLP.Chemscore.Hbond>  (196) 


>  <PLP.Chemscore.Internal.Correction>  (196) 


>  <PLP.Chemscore.Metal>  (196) 


>  <PLP.Fitness>  (196) 


>  <PLP.PLP>  (196) 


>  <PLP.ligand.clash>  (196) 


>  <PLP.ligand.torsion>  (196) 


>  <PLP.part.buried>  (196) 


>  <PLP.part.hbond>  (196) 


>  <PLP.part.metal>  (196) 


>  <PLP.part.nonpolar>  (196) 


>  <PLP.part.repulsive>  (196) 


>  <Version>  (196) 


$$$$
3196|Compound_1949|Compounds_3D_F|sdf|569|dock3|1
     RDKit          3D

 20 21  0  0  0  0  0  0  0  0999 V2000
   -8.5321  -16.6195   11.8949 N   0  0  0  0  0  0  0  0  0  0  0  0
   -8.5757  -15.2769   12.0065 C   0  0  0  0  0  0  0  0  0  0  0  0
   -9.6471  -14.7080   12.0789 O   0  0  0  0  0  0  0  0  0  0  0  0
   -7.3242  -14.5007   12.0408 C   0  0  0  0  0  0  0  0  0  0  0  0
   -7.1502  -13.1477   11.8745 C   0  0  0  0  0  0  0  0  0  0  0  0
   -5.8390  -12.9206   11.9899 O   0  0  0  0  0  0  0  0  0  0  0  0
   -5.2011  -13.9225   12.1988 N   0  0  0  0  0  0  0  0  0  0  0  0
   -5.9521  -14.9816   12.2659 C   0  0  0  0  0  0  0  0  0  0  0  0
   -5.5100  -16.4015   12.5122 C   0  0  0  0  0  0  0  0  0  0  0  0
   -8.2240  -12.1241   11.6122 C   0  0  0  0  0  0  0  0  0  0  0  0
   -9.7010  -17.3450   11.8579 C   0  0  0  0  0  0  0  0  0  0  0  0
   -9.8934  -18.6080   11.2903 C   0  0  0  0  0  0  0  0  0  0  0  0
  -11.2734  -18.8689   11.5378 C   0  0  0  0  0  0  0  0  0  0  0  0
  -11.7324  -17.8334   12.1712 N   0  0  0  0  0  0  0  0  0  0  0  0
  -10.8903  -16.9901   12.3629 O   0  0  0  0  0  0  0  0  0  0  0  0
   -8.9136  -19.4574   10.6052 C   0  0  0  0  0  0  0  0  0  0  0  0
   -9.2715  -20.4892   10.0699 O   0  0  0  0  0  0  0  0  0  0  0  0
   -7.6158  -19.0937   10.5675 O   0  0  0  0  0  0  0  0  0  0  0  0
   -6.7072  -19.9658    9.8455 C   0  0  0  0  0  0  0  0  0  0  0  0
   -5.2936  -19.3799    9.8895 C   0  0  0  0  0  0  0  0  0  0  0  0
  1  2  1  0
  1 11  1  0
  2  3  2  0
  2  4  1  0
  4  5  2  0
  4  8  1  0
  5  6  1  0
  5 10  1  0
  6  7  1  0
  7  8  2  0
  8  9  1  0
 11 12  2  0
 11 15  1  0
 12 13  1  0
 12 16  1  0
 13 14  2  0
 14 15  1  0
 16 17  2  0
 16 18  1  0
 18 19  1  0
 19 20  1  0
M  END
>  <Gold.Gold.Protein.RotatedWaterAtoms>  (197) 


>  <Gold.Id.Protein>  (197) 


>  <Gold.PLP.Chemscore.CHOScore>  (197) 
0.0000

>  <Gold.PLP.Chemscore.Hbond>  (197) 
1.0000

>  <Gold.PLP.Chemscore.Internal.Correction>  (197) 
0.0107

>  <Gold.PLP.Chemscore.Metal>  (197) 
0.0000

>  <Gold.PLP.Fitness>  (197) 
45.9909

>  <Gold.PLP.PLP>  (197) 
-43.4790

>  <Gold.PLP.ligand.clash>  (197) 
0.0000

>  <Gold.PLP.ligand.torsion>  (197) 
0.2494

>  <Gold.PLP.part.buried>  (197) 
-8.9459

>  <Gold.PLP.part.hbond>  (197) 
-5.1621

>  <Gold.PLP.part.metal>  (197) 
0.0000

>  <Gold.PLP.part.nonpolar>  (197) 
-30.5355

>  <Gold.PLP.part.repulsive>  (197) 
0.7998

>  <Gold.Protein.RotatedAtoms>  (197) 


>  <Gold.Protein.RotatedTorsions>  (197) 


>  <Gold.Protein.RotatedWaterAtoms>  (197) 


>  <Gold.Version>  (197) 
5.3.0

>  <PLP.Chemscore.CHOScore>  (197) 


>  <PLP.Chemscore.Hbond>  (197) 


>  <PLP.Chemscore.Internal.Correction>  (197) 


>  <PLP.Chemscore.Metal>  (197) 


>  <PLP.Fitness>  (197) 


>  <PLP.PLP>  (197) 


>  <PLP.ligand.clash>  (197) 


>  <PLP.ligand.torsion>  (197) 


>  <PLP.part.buried>  (197) 


>  <PLP.part.hbond>  (197) 


>  <PLP.part.metal>  (197) 


>  <PLP.part.nonpolar>  (197) 


>  <PLP.part.repulsive>  (197) 


>  <Version>  (197) 


$$$$
3197|Compound_1950|Compounds_3D_F|sdf|570|dock1|1
     RDKit          3D

 28 30  0  0  0  0  0  0  0  0999 V2000
  -12.6594  -18.8130    8.8962 O   0  0  0  0  0  0  0  0  0  0  0  0
  -12.1414  -18.7748   10.1475 C   0  0  0  0  0  0  0  0  0  0  0  0
  -12.5327  -19.7145   11.1130 C   0  0  0  0  0  0  0  0  0  0  0  0
  -13.3868  -20.7685   11.1255 N   0  0  0  0  0  0  0  0  0  0  0  0
  -13.3778  -21.3196   12.3033 C   0  0  0  0  0  0  0  0  0  0  0  0
  -12.5146  -20.6534   13.1231 N   0  0  0  0  0  0  0  0  0  0  0  0
  -11.9632  -19.6286   12.3959 C   0  0  0  0  0  0  0  0  0  0  0  0
  -11.0819  -18.6684   12.6485 N   0  0  0  0  0  0  0  0  0  0  0  0
  -10.7426  -17.8027   11.7084 C   0  0  0  0  0  0  0  0  0  0  0  0
  -11.2511  -17.8514   10.4838 N   0  0  0  0  0  0  0  0  0  0  0  0
   -9.8173  -16.8112   12.0113 N   0  0  0  0  0  0  0  0  0  0  0  0
   -8.5362  -16.9417   11.6152 C   0  0  0  0  0  0  0  0  0  0  0  0
   -8.1896  -17.9268   10.9923 O   0  0  0  0  0  0  0  0  0  0  0  0
   -7.5547  -15.8901   11.9361 C   0  0  0  0  0  0  0  0  0  0  0  0
   -6.1977  -16.0089   12.1108 C   0  0  0  0  0  0  0  0  0  0  0  0
   -5.7453  -14.7835   12.3843 O   0  0  0  0  0  0  0  0  0  0  0  0
   -6.6160  -13.9485   12.4024 N   0  0  0  0  0  0  0  0  0  0  0  0
   -7.7868  -14.4513   12.1414 C   0  0  0  0  0  0  0  0  0  0  0  0
   -9.1013  -13.7187   12.0755 C   0  0  0  0  0  0  0  0  0  0  0  0
   -5.3815  -17.2720   12.0124 C   0  0  0  0  0  0  0  0  0  0  0  0
  -12.2291  -20.9719   14.5246 C   0  0  0  0  0  0  0  0  0  0  0  0
  -13.0716  -22.1743   14.9565 C   0  0  0  0  0  0  0  0  0  0  0  0
  -12.3557  -22.9313   15.9334 O   0  0  0  0  0  0  0  0  0  0  0  0
  -13.1751  -23.8222   16.6941 C   0  0  0  0  0  0  0  0  0  0  0  0
  -12.1244  -25.0804   17.4922 P   0  0  0  0  0  0  0  0  0  0  0  0
  -11.0800  -24.4119   18.3002 O   0  0  0  0  0  0  0  0  0  0  0  0
  -13.0301  -26.0071   18.4478 O   0  0  0  0  0  0  0  0  0  0  0  0
  -11.4280  -25.9924   16.3641 O   0  0  0  0  0  0  0  0  0  0  0  0
  1  2  1  0
  2  3  2  0
  2 10  1  0
  3  4  1  0
  3  7  1  0
  4  5  2  0
  5  6  1  0
  6  7  1  0
  6 21  1  0
  7  8  2  0
  8  9  1  0
  9 10  2  0
  9 11  1  0
 11 12  1  0
 12 13  2  0
 12 14  1  0
 14 15  2  0
 14 18  1  0
 15 16  1  0
 15 20  1  0
 16 17  1  0
 17 18  2  0
 18 19  1  0
 21 22  1  0
 22 23  1  0
 23 24  1  0
 24 25  1  0
 25 26  2  0
 25 27  1  0
 25 28  1  0
M  END
>  <Gold.Gold.Protein.RotatedWaterAtoms>  (198) 


>  <Gold.Id.Protein>  (198) 


>  <Gold.PLP.Chemscore.CHOScore>  (198) 
0.0000

>  <Gold.PLP.Chemscore.Hbond>  (198) 
2.7296

>  <Gold.PLP.Chemscore.Internal.Correction>  (198) 
0.8541

>  <Gold.PLP.Chemscore.Metal>  (198) 
0.0000

>  <Gold.PLP.Fitness>  (198) 
50.6442

>  <Gold.PLP.PLP>  (198) 
-44.5004

>  <Gold.PLP.ligand.clash>  (198) 
0.0000

>  <Gold.PLP.ligand.torsion>  (198) 
1.4496

>  <Gold.PLP.part.buried>  (198) 
-7.2624

>  <Gold.PLP.part.hbond>  (198) 
-4.5290

>  <Gold.PLP.part.metal>  (198) 
0.0000

>  <Gold.PLP.part.nonpolar>  (198) 
-34.8602

>  <Gold.PLP.part.repulsive>  (198) 
0.5881

>  <Gold.Protein.RotatedAtoms>  (198) 


>  <Gold.Protein.RotatedTorsions>  (198) 


>  <Gold.Protein.RotatedWaterAtoms>  (198) 


>  <Gold.Version>  (198) 
5.3.0

>  <PLP.Chemscore.CHOScore>  (198) 


>  <PLP.Chemscore.Hbond>  (198) 


>  <PLP.Chemscore.Internal.Correction>  (198) 


>  <PLP.Chemscore.Metal>  (198) 


>  <PLP.Fitness>  (198) 


>  <PLP.PLP>  (198) 


>  <PLP.ligand.clash>  (198) 


>  <PLP.ligand.torsion>  (198) 


>  <PLP.part.buried>  (198) 


>  <PLP.part.hbond>  (198) 


>  <PLP.part.metal>  (198) 


>  <PLP.part.nonpolar>  (198) 


>  <PLP.part.repulsive>  (198) 


>  <Version>  (198) 


$$$$
3198|Compound_1950|Compounds_3D_F|sdf|570|dock2|1
     RDKit          3D

 28 30  0  0  0  0  0  0  0  0999 V2000
   -8.6639  -19.8243    8.1788 O   0  0  0  0  0  0  0  0  0  0  0  0
   -9.2804  -19.1040    9.1466 C   0  0  0  0  0  0  0  0  0  0  0  0
  -10.6472  -19.2809    9.4094 C   0  0  0  0  0  0  0  0  0  0  0  0
  -11.6221  -20.0710    8.8938 N   0  0  0  0  0  0  0  0  0  0  0  0
  -12.7419  -19.8369    9.5121 C   0  0  0  0  0  0  0  0  0  0  0  0
  -12.5561  -18.8803   10.4668 N   0  0  0  0  0  0  0  0  0  0  0  0
  -11.2362  -18.5072   10.4253 C   0  0  0  0  0  0  0  0  0  0  0  0
  -10.4852  -17.6416   11.0956 N   0  0  0  0  0  0  0  0  0  0  0  0
   -9.2005  -17.5065   10.8138 C   0  0  0  0  0  0  0  0  0  0  0  0
   -8.6040  -18.2205    9.8678 N   0  0  0  0  0  0  0  0  0  0  0  0
   -8.4476  -16.5893   11.5370 N   0  0  0  0  0  0  0  0  0  0  0  0
   -7.9090  -15.5216   10.9165 C   0  0  0  0  0  0  0  0  0  0  0  0
   -8.0818  -15.3603    9.7237 O   0  0  0  0  0  0  0  0  0  0  0  0
   -7.1106  -14.5485   11.6833 C   0  0  0  0  0  0  0  0  0  0  0  0
   -7.4139  -13.2454   11.9925 C   0  0  0  0  0  0  0  0  0  0  0  0
   -6.3839  -12.7776   12.7005 O   0  0  0  0  0  0  0  0  0  0  0  0
   -5.5102  -13.5934   12.8642 N   0  0  0  0  0  0  0  0  0  0  0  0
   -5.7938  -14.7368   12.3132 C   0  0  0  0  0  0  0  0  0  0  0  0
   -4.9488  -15.9838   12.3102 C   0  0  0  0  0  0  0  0  0  0  0  0
   -8.6623  -12.4932   11.6091 C   0  0  0  0  0  0  0  0  0  0  0  0
  -13.5787  -18.3467   11.3704 C   0  0  0  0  0  0  0  0  0  0  0  0
  -13.5028  -19.0754   12.7141 C   0  0  0  0  0  0  0  0  0  0  0  0
  -12.2221  -19.6931   12.8494 O   0  0  0  0  0  0  0  0  0  0  0  0
  -12.1418  -20.6374   13.9197 C   0  0  0  0  0  0  0  0  0  0  0  0
  -12.9979  -22.1735   13.4387 P   0  0  0  0  0  0  0  0  0  0  0  0
  -12.8804  -23.1671   14.5294 O   0  0  0  0  0  0  0  0  0  0  0  0
  -14.5530  -21.8577   13.1667 O   0  0  0  0  0  0  0  0  0  0  0  0
  -12.3285  -22.7648   12.1002 O   0  0  0  0  0  0  0  0  0  0  0  0
  1  2  1  0
  2  3  2  0
  2 10  1  0
  3  4  1  0
  3  7  1  0
  4  5  2  0
  5  6  1  0
  6  7  1  0
  6 21  1  0
  7  8  2  0
  8  9  1  0
  9 10  2  0
  9 11  1  0
 11 12  1  0
 12 13  2  0
 12 14  1  0
 14 15  2  0
 14 18  1  0
 15 16  1  0
 15 20  1  0
 16 17  1  0
 17 18  2  0
 18 19  1  0
 21 22  1  0
 22 23  1  0
 23 24  1  0
 24 25  1  0
 25 26  2  0
 25 27  1  0
 25 28  1  0
M  END
>  <Gold.Gold.Protein.RotatedWaterAtoms>  (199) 


>  <Gold.Id.Protein>  (199) 


>  <Gold.PLP.Chemscore.CHOScore>  (199) 
0.0000

>  <Gold.PLP.Chemscore.Hbond>  (199) 
2.2720

>  <Gold.PLP.Chemscore.Internal.Correction>  (199) 
0.7370

>  <Gold.PLP.Chemscore.Metal>  (199) 
0.0000

>  <Gold.PLP.Fitness>  (199) 
49.7891

>  <Gold.PLP.PLP>  (199) 
-47.4828

>  <Gold.PLP.ligand.clash>  (199) 
0.0000

>  <Gold.PLP.ligand.torsion>  (199) 
2.6234

>  <Gold.PLP.part.buried>  (199) 
-7.5923

>  <Gold.PLP.part.hbond>  (199) 
-5.9711

>  <Gold.PLP.part.metal>  (199) 
0.0000

>  <Gold.PLP.part.nonpolar>  (199) 
-35.2681

>  <Gold.PLP.part.repulsive>  (199) 
0.7018

>  <Gold.Protein.RotatedAtoms>  (199) 


>  <Gold.Protein.RotatedTorsions>  (199) 


>  <Gold.Protein.RotatedWaterAtoms>  (199) 


>  <Gold.Version>  (199) 
5.3.0

>  <PLP.Chemscore.CHOScore>  (199) 


>  <PLP.Chemscore.Hbond>  (199) 


>  <PLP.Chemscore.Internal.Correction>  (199) 


>  <PLP.Chemscore.Metal>  (199) 


>  <PLP.Fitness>  (199) 


>  <PLP.PLP>  (199) 


>  <PLP.ligand.clash>  (199) 


>  <PLP.ligand.torsion>  (199) 


>  <PLP.part.buried>  (199) 


>  <PLP.part.hbond>  (199) 


>  <PLP.part.metal>  (199) 


>  <PLP.part.nonpolar>  (199) 


>  <PLP.part.repulsive>  (199) 


>  <Version>  (199) 


$$$$
3199|Compound_1950|Compounds_3D_F|sdf|570|dock3|1
     RDKit          3D

 28 30  0  0  0  0  0  0  0  0999 V2000
   -9.5550  -13.4372   11.0310 O   0  0  0  0  0  0  0  0  0  0  0  0
   -8.8239  -14.5613   11.2248 C   0  0  0  0  0  0  0  0  0  0  0  0
   -7.4530  -14.4826   11.5124 C   0  0  0  0  0  0  0  0  0  0  0  0
   -6.5684  -13.4654   11.6656 N   0  0  0  0  0  0  0  0  0  0  0  0
   -5.3918  -13.9508   11.9320 C   0  0  0  0  0  0  0  0  0  0  0  0
   -5.4468  -15.3134   11.9679 N   0  0  0  0  0  0  0  0  0  0  0  0
   -6.7425  -15.6809   11.7046 C   0  0  0  0  0  0  0  0  0  0  0  0
   -7.3876  -16.8371   11.6075 N   0  0  0  0  0  0  0  0  0  0  0  0
   -8.6808  -16.8647   11.3333 C   0  0  0  0  0  0  0  0  0  0  0  0
   -9.3898  -15.7582   11.1507 N   0  0  0  0  0  0  0  0  0  0  0  0
   -9.3207  -18.0946   11.2390 N   0  0  0  0  0  0  0  0  0  0  0  0
  -10.3728  -18.2447   10.4108 C   0  0  0  0  0  0  0  0  0  0  0  0
  -10.7622  -17.3042    9.7457 O   0  0  0  0  0  0  0  0  0  0  0  0
  -11.0515  -19.5491   10.3103 C   0  0  0  0  0  0  0  0  0  0  0  0
  -12.2918  -19.8321    9.7930 C   0  0  0  0  0  0  0  0  0  0  0  0
  -12.4618  -21.1493    9.9239 O   0  0  0  0  0  0  0  0  0  0  0  0
  -11.5205  -21.7012   10.4386 N   0  0  0  0  0  0  0  0  0  0  0  0
  -10.5634  -20.8715   10.7335 C   0  0  0  0  0  0  0  0  0  0  0  0
   -9.2423  -21.1941   11.3812 C   0  0  0  0  0  0  0  0  0  0  0  0
  -13.2667  -18.8504    9.1954 C   0  0  0  0  0  0  0  0  0  0  0  0
   -4.3273  -16.2198   12.2365 C   0  0  0  0  0  0  0  0  0  0  0  0
   -4.8537  -17.6481   12.3951 C   0  0  0  0  0  0  0  0  0  0  0  0
   -4.5641  -18.3965   11.2136 O   0  0  0  0  0  0  0  0  0  0  0  0
   -5.3489  -18.0201   10.0795 C   0  0  0  0  0  0  0  0  0  0  0  0
   -4.3383  -17.0036    8.9529 P   0  0  0  0  0  0  0  0  0  0  0  0
   -4.1745  -17.7100    7.6627 O   0  0  0  0  0  0  0  0  0  0  0  0
   -5.0709  -15.5921    8.7020 O   0  0  0  0  0  0  0  0  0  0  0  0
   -2.8925  -16.7479    9.6117 O   0  0  0  0  0  0  0  0  0  0  0  0
  1  2  1  0
  2  3  2  0
  2 10  1  0
  3  4  1  0
  3  7  1  0
  4  5  2  0
  5  6  1  0
  6  7  1  0
  6 21  1  0
  7  8  2  0
  8  9  1  0
  9 10  2  0
  9 11  1  0
 11 12  1  0
 12 13  2  0
 12 14  1  0
 14 15  2  0
 14 18  1  0
 15 16  1  0
 15 20  1  0
 16 17  1  0
 17 18  2  0
 18 19  1  0
 21 22  1  0
 22 23  1  0
 23 24  1  0
 24 25  1  0
 25 26  2  0
 25 27  1  0
 25 28  1  0
M  END
>  <Gold.Gold.Protein.RotatedWaterAtoms>  (200) 


>  <Gold.Id.Protein>  (200) 


>  <Gold.PLP.Chemscore.CHOScore>  (200) 
1.1809

>  <Gold.PLP.Chemscore.Hbond>  (200) 
3.4640

>  <Gold.PLP.Chemscore.Internal.Correction>  (200) 
0.7370

>  <Gold.PLP.Chemscore.Metal>  (200) 
0.0000

>  <Gold.PLP.Fitness>  (200) 
59.7405

>  <Gold.PLP.PLP>  (200) 
-47.2344

>  <Gold.PLP.ligand.clash>  (200) 
0.0206

>  <Gold.PLP.ligand.torsion>  (200) 
1.0725

>  <Gold.PLP.part.buried>  (200) 
-7.5573

>  <Gold.PLP.part.hbond>  (200) 
-6.7918

>  <Gold.PLP.part.metal>  (200) 
0.0000

>  <Gold.PLP.part.nonpolar>  (200) 
-34.0262

>  <Gold.PLP.part.repulsive>  (200) 
0.4020

>  <Gold.Protein.RotatedAtoms>  (200) 


>  <Gold.Protein.RotatedTorsions>  (200) 


>  <Gold.Protein.RotatedWaterAtoms>  (200) 


>  <Gold.Version>  (200) 
5.3.0

>  <PLP.Chemscore.CHOScore>  (200) 


>  <PLP.Chemscore.Hbond>  (200) 


>  <PLP.Chemscore.Internal.Correction>  (200) 


>  <PLP.Chemscore.Metal>  (200) 


>  <PLP.Fitness>  (200) 


>  <PLP.PLP>  (200) 


>  <PLP.ligand.clash>  (200) 


>  <PLP.ligand.torsion>  (200) 


>  <PLP.part.buried>  (200) 


>  <PLP.part.hbond>  (200) 


>  <PLP.part.metal>  (200) 


>  <PLP.part.nonpolar>  (200) 


>  <PLP.part.repulsive>  (200) 


>  <Version>  (200) 


$$$$
3200|Compound_1950|Compounds_3D_F|sdf|570|dock4|1
     RDKit          3D

 28 30  0  0  0  0  0  0  0  0999 V2000
   -9.3948  -13.4270   11.5574 O   0  0  0  0  0  0  0  0  0  0  0  0
   -8.7594  -14.6180   11.6734 C   0  0  0  0  0  0  0  0  0  0  0  0
   -7.3997  -14.6733   12.0150 C   0  0  0  0  0  0  0  0  0  0  0  0
   -6.4482  -13.7466   12.2913 N   0  0  0  0  0  0  0  0  0  0  0  0
   -5.3238  -14.3450   12.5536 C   0  0  0  0  0  0  0  0  0  0  0  0
   -5.4829  -15.6968   12.4631 N   0  0  0  0  0  0  0  0  0  0  0  0
   -6.7904  -15.9362   12.1220 C   0  0  0  0  0  0  0  0  0  0  0  0
   -7.5162  -17.0248   11.8972 N   0  0  0  0  0  0  0  0  0  0  0  0
   -8.7951  -16.9260   11.5764 C   0  0  0  0  0  0  0  0  0  0  0  0
   -9.4103  -15.7552   11.4707 N   0  0  0  0  0  0  0  0  0  0  0  0
   -9.5214  -18.0884   11.3479 N   0  0  0  0  0  0  0  0  0  0  0  0
  -10.7757  -18.2040   11.8261 C   0  0  0  0  0  0  0  0  0  0  0  0
  -11.2722  -17.2911   12.4575 O   0  0  0  0  0  0  0  0  0  0  0  0
  -11.5464  -19.4366   11.5836 C   0  0  0  0  0  0  0  0  0  0  0  0
  -11.0998  -20.7349   11.5551 C   0  0  0  0  0  0  0  0  0  0  0  0
  -12.1673  -21.4941   11.3000 O   0  0  0  0  0  0  0  0  0  0  0  0
  -13.1835  -20.8568   11.1700 N   0  0  0  0  0  0  0  0  0  0  0  0
  -12.9872  -19.5799   11.3193 C   0  0  0  0  0  0  0  0  0  0  0  0
  -14.0137  -18.4813   11.2288 C   0  0  0  0  0  0  0  0  0  0  0  0
   -9.6852  -21.2084   11.7700 C   0  0  0  0  0  0  0  0  0  0  0  0
   -4.4472  -16.7089   12.6871 C   0  0  0  0  0  0  0  0  0  0  0  0
   -3.4590  -16.6951   11.5187 C   0  0  0  0  0  0  0  0  0  0  0  0
   -3.7349  -17.7935   10.6485 O   0  0  0  0  0  0  0  0  0  0  0  0
   -2.6189  -18.2000    9.8528 C   0  0  0  0  0  0  0  0  0  0  0  0
   -2.8955  -17.7023    8.1208 P   0  0  0  0  0  0  0  0  0  0  0  0
   -4.2612  -18.0939    7.7061 O   0  0  0  0  0  0  0  0  0  0  0  0
   -2.7325  -16.1060    7.9894 O   0  0  0  0  0  0  0  0  0  0  0  0
   -1.8178  -18.4314    7.1740 O   0  0  0  0  0  0  0  0  0  0  0  0
  1  2  1  0
  2  3  2  0
  2 10  1  0
  3  4  1  0
  3  7  1  0
  4  5  2  0
  5  6  1  0
  6  7  1  0
  6 21  1  0
  7  8  2  0
  8  9  1  0
  9 10  2  0
  9 11  1  0
 11 12  1  0
 12 13  2  0
 12 14  1  0
 14 15  2  0
 14 18  1  0
 15 16  1  0
 15 20  1  0
 16 17  1  0
 17 18  2  0
 18 19  1  0
 21 22  1  0
 22 23  1  0
 23 24  1  0
 24 25  1  0
 25 26  2  0
 25 27  1  0
 25 28  1  0
M  END
>  <Gold.Gold.Protein.RotatedWaterAtoms>  (201) 


>  <Gold.Id.Protein>  (201) 


>  <Gold.PLP.Chemscore.CHOScore>  (201) 
1.0000

>  <Gold.PLP.Chemscore.Hbond>  (201) 
2.9920

>  <Gold.PLP.Chemscore.Internal.Correction>  (201) 
0.7370

>  <Gold.PLP.Chemscore.Metal>  (201) 
0.0000

>  <Gold.PLP.Fitness>  (201) 
56.2790

>  <Gold.PLP.PLP>  (201) 
-47.5047

>  <Gold.PLP.ligand.clash>  (201) 
0.0000

>  <Gold.PLP.ligand.torsion>  (201) 
1.9694

>  <Gold.PLP.part.buried>  (201) 
-9.2278

>  <Gold.PLP.part.hbond>  (201) 
-4.9791

>  <Gold.PLP.part.metal>  (201) 
0.0000

>  <Gold.PLP.part.nonpolar>  (201) 
-34.4242

>  <Gold.PLP.part.repulsive>  (201) 
0.5639

>  <Gold.Protein.RotatedAtoms>  (201) 


>  <Gold.Protein.RotatedTorsions>  (201) 


>  <Gold.Protein.RotatedWaterAtoms>  (201) 


>  <Gold.Version>  (201) 
5.3.0

>  <PLP.Chemscore.CHOScore>  (201) 


>  <PLP.Chemscore.Hbond>  (201) 


>  <PLP.Chemscore.Internal.Correction>  (201) 


>  <PLP.Chemscore.Metal>  (201) 


>  <PLP.Fitness>  (201) 


>  <PLP.PLP>  (201) 


>  <PLP.ligand.clash>  (201) 


>  <PLP.ligand.torsion>  (201) 


>  <PLP.part.buried>  (201) 


>  <PLP.part.hbond>  (201) 


>  <PLP.part.metal>  (201) 


>  <PLP.part.nonpolar>  (201) 


>  <PLP.part.repulsive>  (201) 


>  <Version>  (201) 


$$$$
3201|Compound_1950|Compounds_3D_F|sdf|570|dock5|1
     RDKit          3D

 28 30  0  0  0  0  0  0  0  0999 V2000
   -9.6845  -13.6028   12.0081 O   0  0  0  0  0  0  0  0  0  0  0  0
   -8.9131  -14.7118   11.9048 C   0  0  0  0  0  0  0  0  0  0  0  0
   -7.5272  -14.6411   12.1113 C   0  0  0  0  0  0  0  0  0  0  0  0
   -6.6597  -13.6455   12.4224 N   0  0  0  0  0  0  0  0  0  0  0  0
   -5.4548  -14.1287   12.4988 C   0  0  0  0  0  0  0  0  0  0  0  0
   -5.4727  -15.4684   12.2422 N   0  0  0  0  0  0  0  0  0  0  0  0
   -6.7745  -15.8230   11.9918 C   0  0  0  0  0  0  0  0  0  0  0  0
   -7.3956  -16.9566   11.6894 N   0  0  0  0  0  0  0  0  0  0  0  0
   -8.7044  -16.9772   11.5019 C   0  0  0  0  0  0  0  0  0  0  0  0
   -9.4525  -15.8868   11.6108 N   0  0  0  0  0  0  0  0  0  0  0  0
   -9.3183  -18.1830   11.1859 N   0  0  0  0  0  0  0  0  0  0  0  0
  -10.5776  -18.4262   11.5984 C   0  0  0  0  0  0  0  0  0  0  0  0
  -11.1771  -17.5905   12.2471 O   0  0  0  0  0  0  0  0  0  0  0  0
  -11.2291  -19.7051   11.2631 C   0  0  0  0  0  0  0  0  0  0  0  0
  -10.6465  -20.9203   10.9992 C   0  0  0  0  0  0  0  0  0  0  0  0
  -11.6454  -21.7701   10.7517 O   0  0  0  0  0  0  0  0  0  0  0  0
  -12.7349  -21.2569   10.8243 N   0  0  0  0  0  0  0  0  0  0  0  0
  -12.6662  -19.9960   11.1355 C   0  0  0  0  0  0  0  0  0  0  0  0
  -13.8128  -19.0358   11.3149 C   0  0  0  0  0  0  0  0  0  0  0  0
   -9.1722  -21.2325   10.9916 C   0  0  0  0  0  0  0  0  0  0  0  0
   -4.3140  -16.3653   12.2333 C   0  0  0  0  0  0  0  0  0  0  0  0
   -4.7364  -17.7397   11.7091 C   0  0  0  0  0  0  0  0  0  0  0  0
   -5.1040  -17.6323   10.3332 O   0  0  0  0  0  0  0  0  0  0  0  0
   -4.0245  -17.2688    9.4692 C   0  0  0  0  0  0  0  0  0  0  0  0
   -4.6843  -16.4108    8.0021 P   0  0  0  0  0  0  0  0  0  0  0  0
   -3.5668  -16.0199    7.1140 O   0  0  0  0  0  0  0  0  0  0  0  0
   -5.6806  -17.3955    7.2084 O   0  0  0  0  0  0  0  0  0  0  0  0
   -5.4868  -15.0951    8.4653 O   0  0  0  0  0  0  0  0  0  0  0  0
  1  2  1  0
  2  3  2  0
  2 10  1  0
  3  4  1  0
  3  7  1  0
  4  5  2  0
  5  6  1  0
  6  7  1  0
  6 21  1  0
  7  8  2  0
  8  9  1  0
  9 10  2  0
  9 11  1  0
 11 12  1  0
 12 13  2  0
 12 14  1  0
 14 15  2  0
 14 18  1  0
 15 16  1  0
 15 20  1  0
 16 17  1  0
 17 18  2  0
 18 19  1  0
 21 22  1  0
 22 23  1  0
 23 24  1  0
 24 25  1  0
 25 26  2  0
 25 27  1  0
 25 28  1  0
M  END
>  <Gold.Gold.Protein.RotatedWaterAtoms>  (202) 


>  <Gold.Id.Protein>  (202) 


>  <Gold.PLP.Chemscore.CHOScore>  (202) 
1.0000

>  <Gold.PLP.Chemscore.Hbond>  (202) 
3.8320

>  <Gold.PLP.Chemscore.Internal.Correction>  (202) 
0.5809

>  <Gold.PLP.Chemscore.Metal>  (202) 
0.0000

>  <Gold.PLP.Fitness>  (202) 
63.5566

>  <Gold.PLP.PLP>  (202) 
-49.9341

>  <Gold.PLP.ligand.clash>  (202) 
0.0000

>  <Gold.PLP.ligand.torsion>  (202) 
0.7272

>  <Gold.PLP.part.buried>  (202) 
-9.4982

>  <Gold.PLP.part.hbond>  (202) 
-6.4322

>  <Gold.PLP.part.metal>  (202) 
0.0000

>  <Gold.PLP.part.nonpolar>  (202) 
-34.8220

>  <Gold.PLP.part.repulsive>  (202) 
0.7028

>  <Gold.Protein.RotatedAtoms>  (202) 


>  <Gold.Protein.RotatedTorsions>  (202) 


>  <Gold.Protein.RotatedWaterAtoms>  (202) 


>  <Gold.Version>  (202) 
5.3.0

>  <PLP.Chemscore.CHOScore>  (202) 


>  <PLP.Chemscore.Hbond>  (202) 


>  <PLP.Chemscore.Internal.Correction>  (202) 


>  <PLP.Chemscore.Metal>  (202) 


>  <PLP.Fitness>  (202) 


>  <PLP.PLP>  (202) 


>  <PLP.ligand.clash>  (202) 


>  <PLP.ligand.torsion>  (202) 


>  <PLP.part.buried>  (202) 


>  <PLP.part.hbond>  (202) 


>  <PLP.part.metal>  (202) 


>  <PLP.part.nonpolar>  (202) 


>  <PLP.part.repulsive>  (202) 


>  <Version>  (202) 


$$$$
3202|Compound_1950|Compounds_3D_F|sdf|570|dock6|1
     RDKit          3D

 28 30  0  0  0  0  0  0  0  0999 V2000
   -9.5198  -13.4253   11.9711 O   0  0  0  0  0  0  0  0  0  0  0  0
   -8.8526  -14.6025   11.9026 C   0  0  0  0  0  0  0  0  0  0  0  0
   -7.4728  -14.6584   12.1506 C   0  0  0  0  0  0  0  0  0  0  0  0
   -6.5258  -13.7439   12.4781 N   0  0  0  0  0  0  0  0  0  0  0  0
   -5.3740  -14.3361   12.5962 C   0  0  0  0  0  0  0  0  0  0  0  0
   -5.5092  -15.6715   12.3525 N   0  0  0  0  0  0  0  0  0  0  0  0
   -6.8306  -15.9066   12.0661 C   0  0  0  0  0  0  0  0  0  0  0  0
   -7.5456  -16.9813   11.7561 N   0  0  0  0  0  0  0  0  0  0  0  0
   -8.8445  -16.8824   11.5290 C   0  0  0  0  0  0  0  0  0  0  0  0
   -9.4905  -15.7259   11.6040 N   0  0  0  0  0  0  0  0  0  0  0  0
   -9.5587  -18.0299   11.2065 N   0  0  0  0  0  0  0  0  0  0  0  0
  -10.8193  -18.1872   11.6553 C   0  0  0  0  0  0  0  0  0  0  0  0
  -11.3321  -17.3250   12.3424 O   0  0  0  0  0  0  0  0  0  0  0  0
  -11.5771  -19.4041   11.3131 C   0  0  0  0  0  0  0  0  0  0  0  0
  -12.6374  -19.5391   10.4508 C   0  0  0  0  0  0  0  0  0  0  0  0
  -12.9800  -20.8288   10.4756 O   0  0  0  0  0  0  0  0  0  0  0  0
  -12.2938  -21.4886   11.2168 N   0  0  0  0  0  0  0  0  0  0  0  0
  -11.3790  -20.7765   11.8064 C   0  0  0  0  0  0  0  0  0  0  0  0
  -10.3453  -21.2531   12.7929 C   0  0  0  0  0  0  0  0  0  0  0  0
  -13.2849  -18.4480    9.6375 C   0  0  0  0  0  0  0  0  0  0  0  0
   -4.4396  -16.6723   12.3880 C   0  0  0  0  0  0  0  0  0  0  0  0
   -4.3107  -17.3306   11.0125 C   0  0  0  0  0  0  0  0  0  0  0  0
   -3.2461  -18.2823   11.0377 O   0  0  0  0  0  0  0  0  0  0  0  0
   -2.9604  -18.8695    9.7660 C   0  0  0  0  0  0  0  0  0  0  0  0
   -2.0912  -17.6560    8.7192 P   0  0  0  0  0  0  0  0  0  0  0  0
   -1.7020  -18.2941    7.4418 O   0  0  0  0  0  0  0  0  0  0  0  0
   -3.0661  -16.4100    8.4207 O   0  0  0  0  0  0  0  0  0  0  0  0
   -0.7733  -17.1353    9.4819 O   0  0  0  0  0  0  0  0  0  0  0  0
  1  2  1  0
  2  3  2  0
  2 10  1  0
  3  4  1  0
  3  7  1  0
  4  5  2  0
  5  6  1  0
  6  7  1  0
  6 21  1  0
  7  8  2  0
  8  9  1  0
  9 10  2  0
  9 11  1  0
 11 12  1  0
 12 13  2  0
 12 14  1  0
 14 15  2  0
 14 18  1  0
 15 16  1  0
 15 20  1  0
 16 17  1  0
 17 18  2  0
 18 19  1  0
 21 22  1  0
 22 23  1  0
 23 24  1  0
 24 25  1  0
 25 26  2  0
 25 27  1  0
 25 28  1  0
M  END
>  <Gold.Gold.Protein.RotatedWaterAtoms>  (203) 


>  <Gold.Id.Protein>  (203) 


>  <Gold.PLP.Chemscore.CHOScore>  (203) 
1.0000

>  <Gold.PLP.Chemscore.Hbond>  (203) 
3.0000

>  <Gold.PLP.Chemscore.Internal.Correction>  (203) 
0.5809

>  <Gold.PLP.Chemscore.Metal>  (203) 
0.0000

>  <Gold.PLP.Fitness>  (203) 
61.9178

>  <Gold.PLP.PLP>  (203) 
-52.7297

>  <Gold.PLP.ligand.clash>  (203) 
0.0000

>  <Gold.PLP.ligand.torsion>  (203) 
1.6964

>  <Gold.PLP.part.buried>  (203) 
-8.8160

>  <Gold.PLP.part.hbond>  (203) 
-5.7447

>  <Gold.PLP.part.metal>  (203) 
0.0000

>  <Gold.PLP.part.nonpolar>  (203) 
-37.9292

>  <Gold.PLP.part.repulsive>  (203) 
0.4193

>  <Gold.Protein.RotatedAtoms>  (203) 


>  <Gold.Protein.RotatedTorsions>  (203) 


>  <Gold.Protein.RotatedWaterAtoms>  (203) 


>  <Gold.Version>  (203) 
5.3.0

>  <PLP.Chemscore.CHOScore>  (203) 


>  <PLP.Chemscore.Hbond>  (203) 


>  <PLP.Chemscore.Internal.Correction>  (203) 


>  <PLP.Chemscore.Metal>  (203) 


>  <PLP.Fitness>  (203) 


>  <PLP.PLP>  (203) 


>  <PLP.ligand.clash>  (203) 


>  <PLP.ligand.torsion>  (203) 


>  <PLP.part.buried>  (203) 


>  <PLP.part.hbond>  (203) 


>  <PLP.part.metal>  (203) 


>  <PLP.part.nonpolar>  (203) 


>  <PLP.part.repulsive>  (203) 


>  <Version>  (203) 


$$$$
3203|Compound_1950|Compounds_3D_F|sdf|570|dock7|1
     RDKit          3D

 28 30  0  0  0  0  0  0  0  0999 V2000
   -9.2336  -13.7159   10.8988 O   0  0  0  0  0  0  0  0  0  0  0  0
   -8.7346  -14.9493   11.1544 C   0  0  0  0  0  0  0  0  0  0  0  0
   -7.3981  -15.1129   11.5488 C   0  0  0  0  0  0  0  0  0  0  0  0
   -6.3588  -14.2686   11.7668 N   0  0  0  0  0  0  0  0  0  0  0  0
   -5.3132  -14.9525   12.1272 C   0  0  0  0  0  0  0  0  0  0  0  0
   -5.6159  -16.2821   12.1645 N   0  0  0  0  0  0  0  0  0  0  0  0
   -6.9326  -16.4155   11.8016 C   0  0  0  0  0  0  0  0  0  0  0  0
   -7.7665  -17.4386   11.6590 N   0  0  0  0  0  0  0  0  0  0  0  0
   -9.0186  -17.2385   11.2840 C   0  0  0  0  0  0  0  0  0  0  0  0
   -9.4999  -16.0261   11.0412 N   0  0  0  0  0  0  0  0  0  0  0  0
   -9.8609  -18.3348   11.1448 N   0  0  0  0  0  0  0  0  0  0  0  0
  -11.0771  -18.3278   11.7247 C   0  0  0  0  0  0  0  0  0  0  0  0
  -11.4377  -17.3620   12.3696 O   0  0  0  0  0  0  0  0  0  0  0  0
  -11.9708  -19.4904   11.5770 C   0  0  0  0  0  0  0  0  0  0  0  0
  -11.9735  -20.6650   12.2884 C   0  0  0  0  0  0  0  0  0  0  0  0
  -12.9668  -21.4040   11.7899 O   0  0  0  0  0  0  0  0  0  0  0  0
  -13.5598  -20.8591   10.8915 N   0  0  0  0  0  0  0  0  0  0  0  0
  -13.0861  -19.6754   10.6346 C   0  0  0  0  0  0  0  0  0  0  0  0
  -13.5687  -18.7061    9.5875 C   0  0  0  0  0  0  0  0  0  0  0  0
  -11.0408  -21.0440   13.4098 C   0  0  0  0  0  0  0  0  0  0  0  0
   -4.7025  -17.3698   12.5245 C   0  0  0  0  0  0  0  0  0  0  0  0
   -4.3747  -18.1947   11.2777 C   0  0  0  0  0  0  0  0  0  0  0  0
   -3.0725  -17.8470   10.8053 O   0  0  0  0  0  0  0  0  0  0  0  0
   -2.1718  -18.9536   10.7149 C   0  0  0  0  0  0  0  0  0  0  0  0
   -0.7455  -18.4914    9.6777 P   0  0  0  0  0  0  0  0  0  0  0  0
   -0.6217  -19.4462    8.5537 O   0  0  0  0  0  0  0  0  0  0  0  0
   -0.9639  -17.0057    9.0973 O   0  0  0  0  0  0  0  0  0  0  0  0
    0.5973  -18.5292   10.5638 O   0  0  0  0  0  0  0  0  0  0  0  0
  1  2  1  0
  2  3  2  0
  2 10  1  0
  3  4  1  0
  3  7  1  0
  4  5  2  0
  5  6  1  0
  6  7  1  0
  6 21  1  0
  7  8  2  0
  8  9  1  0
  9 10  2  0
  9 11  1  0
 11 12  1  0
 12 13  2  0
 12 14  1  0
 14 15  2  0
 14 18  1  0
 15 16  1  0
 15 20  1  0
 16 17  1  0
 17 18  2  0
 18 19  1  0
 21 22  1  0
 22 23  1  0
 23 24  1  0
 24 25  1  0
 25 26  2  0
 25 27  1  0
 25 28  1  0
M  END
>  <Gold.Gold.Protein.RotatedWaterAtoms>  (204) 


>  <Gold.Id.Protein>  (204) 


>  <Gold.PLP.Chemscore.CHOScore>  (204) 
1.0397

>  <Gold.PLP.Chemscore.Hbond>  (204) 
2.8266

>  <Gold.PLP.Chemscore.Internal.Correction>  (204) 
0.5809

>  <Gold.PLP.Chemscore.Metal>  (204) 
0.0000

>  <Gold.PLP.Fitness>  (204) 
57.7544

>  <Gold.PLP.PLP>  (204) 
-51.0829

>  <Gold.PLP.ligand.clash>  (204) 
0.0000

>  <Gold.PLP.ligand.torsion>  (204) 
2.7542

>  <Gold.PLP.part.buried>  (204) 
-8.3339

>  <Gold.PLP.part.hbond>  (204) 
-5.7402

>  <Gold.PLP.part.metal>  (204) 
0.0000

>  <Gold.PLP.part.nonpolar>  (204) 
-37.1315

>  <Gold.PLP.part.repulsive>  (204) 
0.4652

>  <Gold.Protein.RotatedAtoms>  (204) 


>  <Gold.Protein.RotatedTorsions>  (204) 


>  <Gold.Protein.RotatedWaterAtoms>  (204) 


>  <Gold.Version>  (204) 
5.3.0

>  <PLP.Chemscore.CHOScore>  (204) 


>  <PLP.Chemscore.Hbond>  (204) 


>  <PLP.Chemscore.Internal.Correction>  (204) 


>  <PLP.Chemscore.Metal>  (204) 


>  <PLP.Fitness>  (204) 


>  <PLP.PLP>  (204) 


>  <PLP.ligand.clash>  (204) 


>  <PLP.ligand.torsion>  (204) 


>  <PLP.part.buried>  (204) 


>  <PLP.part.hbond>  (204) 


>  <PLP.part.metal>  (204) 


>  <PLP.part.nonpolar>  (204) 


>  <PLP.part.repulsive>  (204) 


>  <Version>  (204) 


$$$$
3204|Compound_1950|Compounds_3D_F|sdf|570|dock8|1
     RDKit          3D

 28 30  0  0  0  0  0  0  0  0999 V2000
   -9.3273  -13.4752   11.0003 O   0  0  0  0  0  0  0  0  0  0  0  0
   -8.7997  -14.7026   11.2254 C   0  0  0  0  0  0  0  0  0  0  0  0
   -7.4753  -14.8421   11.6672 C   0  0  0  0  0  0  0  0  0  0  0  0
   -6.4731  -13.9765   11.9621 N   0  0  0  0  0  0  0  0  0  0  0  0
   -5.4212  -14.6430   12.3367 C   0  0  0  0  0  0  0  0  0  0  0  0
   -5.6824  -15.9816   12.3071 N   0  0  0  0  0  0  0  0  0  0  0  0
   -6.9787  -16.1395   11.8853 C   0  0  0  0  0  0  0  0  0  0  0  0
   -7.7730  -17.1805   11.6667 N   0  0  0  0  0  0  0  0  0  0  0  0
   -9.0150  -17.0028   11.2492 C   0  0  0  0  0  0  0  0  0  0  0  0
   -9.5250  -15.7964   11.0368 N   0  0  0  0  0  0  0  0  0  0  0  0
   -9.8156  -18.1174   11.0308 N   0  0  0  0  0  0  0  0  0  0  0  0
   -9.2711  -19.2559   10.5591 C   0  0  0  0  0  0  0  0  0  0  0  0
   -8.0791  -19.3082   10.3246 O   0  0  0  0  0  0  0  0  0  0  0  0
  -10.1199  -20.4383   10.3276 C   0  0  0  0  0  0  0  0  0  0  0  0
   -9.7737  -21.7660   10.3837 C   0  0  0  0  0  0  0  0  0  0  0  0
  -10.8809  -22.4554   10.1010 O   0  0  0  0  0  0  0  0  0  0  0  0
  -11.8363  -21.7515    9.8832 N   0  0  0  0  0  0  0  0  0  0  0  0
  -11.5507  -20.4869    9.9861 C   0  0  0  0  0  0  0  0  0  0  0  0
  -12.4831  -19.3208    9.7862 C   0  0  0  0  0  0  0  0  0  0  0  0
   -8.4138  -22.3321   10.7022 C   0  0  0  0  0  0  0  0  0  0  0  0
   -4.7496  -17.0553   12.6592 C   0  0  0  0  0  0  0  0  0  0  0  0
   -3.7540  -17.2620   11.5155 C   0  0  0  0  0  0  0  0  0  0  0  0
   -4.4062  -17.0239   10.2673 O   0  0  0  0  0  0  0  0  0  0  0  0
   -3.5812  -17.2641    9.1247 C   0  0  0  0  0  0  0  0  0  0  0  0
   -4.4743  -16.7641    7.6160 P   0  0  0  0  0  0  0  0  0  0  0  0
   -5.7192  -17.5552    7.4934 O   0  0  0  0  0  0  0  0  0  0  0  0
   -4.8405  -15.1987    7.7038 O   0  0  0  0  0  0  0  0  0  0  0  0
   -3.5437  -17.0259    6.3295 O   0  0  0  0  0  0  0  0  0  0  0  0
  1  2  1  0
  2  3  2  0
  2 10  1  0
  3  4  1  0
  3  7  1  0
  4  5  2  0
  5  6  1  0
  6  7  1  0
  6 21  1  0
  7  8  2  0
  8  9  1  0
  9 10  2  0
  9 11  1  0
 11 12  1  0
 12 13  2  0
 12 14  1  0
 14 15  2  0
 14 18  1  0
 15 16  1  0
 15 20  1  0
 16 17  1  0
 17 18  2  0
 18 19  1  0
 21 22  1  0
 22 23  1  0
 23 24  1  0
 24 25  1  0
 25 26  2  0
 25 27  1  0
 25 28  1  0
M  END
>  <Gold.Gold.Protein.RotatedWaterAtoms>  (205) 


>  <Gold.Id.Protein>  (205) 


>  <Gold.PLP.Chemscore.CHOScore>  (205) 
1.0000

>  <Gold.PLP.Chemscore.Hbond>  (205) 
1.7660

>  <Gold.PLP.Chemscore.Internal.Correction>  (205) 
0.5809

>  <Gold.PLP.Chemscore.Metal>  (205) 
0.0000

>  <Gold.PLP.Fitness>  (205) 
52.9596

>  <Gold.PLP.PLP>  (205) 
-46.0125

>  <Gold.PLP.ligand.clash>  (205) 
0.0000

>  <Gold.PLP.ligand.torsion>  (205) 
0.9659

>  <Gold.PLP.part.buried>  (205) 
-8.4246

>  <Gold.PLP.part.hbond>  (205) 
-6.0448

>  <Gold.PLP.part.metal>  (205) 
0.0000

>  <Gold.PLP.part.nonpolar>  (205) 
-32.5665

>  <Gold.PLP.part.repulsive>  (205) 
0.4591

>  <Gold.Protein.RotatedAtoms>  (205) 


>  <Gold.Protein.RotatedTorsions>  (205) 


>  <Gold.Protein.RotatedWaterAtoms>  (205) 


>  <Gold.Version>  (205) 
5.3.0

>  <PLP.Chemscore.CHOScore>  (205) 


>  <PLP.Chemscore.Hbond>  (205) 


>  <PLP.Chemscore.Internal.Correction>  (205) 


>  <PLP.Chemscore.Metal>  (205) 


>  <PLP.Fitness>  (205) 


>  <PLP.PLP>  (205) 


>  <PLP.ligand.clash>  (205) 


>  <PLP.ligand.torsion>  (205) 


>  <PLP.part.buried>  (205) 


>  <PLP.part.hbond>  (205) 


>  <PLP.part.metal>  (205) 


>  <PLP.part.nonpolar>  (205) 


>  <PLP.part.repulsive>  (205) 


>  <Version>  (205) 


$$$$
3205|Compound_1950|Compounds_3D_F|sdf|570|dock9|1
     RDKit          3D

 28 30  0  0  0  0  0  0  0  0999 V2000
   -9.1929  -14.5159   12.4972 O   0  0  0  0  0  0  0  0  0  0  0  0
   -8.8884  -15.7185   11.9525 C   0  0  0  0  0  0  0  0  0  0  0  0
   -7.5586  -16.0537   11.6563 C   0  0  0  0  0  0  0  0  0  0  0  0
   -6.3650  -15.4220   11.7866 N   0  0  0  0  0  0  0  0  0  0  0  0
   -5.4154  -16.1954   11.3493 C   0  0  0  0  0  0  0  0  0  0  0  0
   -5.9403  -17.3757   10.9106 N   0  0  0  0  0  0  0  0  0  0  0  0
   -7.2992  -17.3154   11.0920 C   0  0  0  0  0  0  0  0  0  0  0  0
   -8.3133  -18.1401   10.8598 N   0  0  0  0  0  0  0  0  0  0  0  0
   -9.5519  -17.7823   11.1537 C   0  0  0  0  0  0  0  0  0  0  0  0
   -9.8400  -16.6044   11.6922 N   0  0  0  0  0  0  0  0  0  0  0  0
  -10.5869  -18.6727   10.8950 N   0  0  0  0  0  0  0  0  0  0  0  0
  -11.6813  -18.6801   11.6809 C   0  0  0  0  0  0  0  0  0  0  0  0
  -11.7634  -17.9075   12.6163 O   0  0  0  0  0  0  0  0  0  0  0  0
  -12.7794  -19.6241   11.4066 C   0  0  0  0  0  0  0  0  0  0  0  0
  -13.4873  -19.8006   10.2432 C   0  0  0  0  0  0  0  0  0  0  0  0
  -14.3740  -20.7680   10.4859 O   0  0  0  0  0  0  0  0  0  0  0  0
  -14.3110  -21.1991   11.6110 N   0  0  0  0  0  0  0  0  0  0  0  0
  -13.3830  -20.6159   12.3112 C   0  0  0  0  0  0  0  0  0  0  0  0
  -13.0134  -20.8894   13.7456 C   0  0  0  0  0  0  0  0  0  0  0  0
  -13.2995  -19.0513    8.9491 C   0  0  0  0  0  0  0  0  0  0  0  0
   -5.1911  -18.5018   10.3469 C   0  0  0  0  0  0  0  0  0  0  0  0
   -3.7115  -18.3648   10.7130 C   0  0  0  0  0  0  0  0  0  0  0  0
   -3.0012  -19.5203   10.2657 O   0  0  0  0  0  0  0  0  0  0  0  0
   -1.6239  -19.5409   10.6485 C   0  0  0  0  0  0  0  0  0  0  0  0
   -0.6658  -18.4728    9.5237 P   0  0  0  0  0  0  0  0  0  0  0  0
    0.7321  -18.3803   10.0011 O   0  0  0  0  0  0  0  0  0  0  0  0
   -0.6855  -19.1011    8.0415 O   0  0  0  0  0  0  0  0  0  0  0  0
   -1.3200  -17.0029    9.4919 O   0  0  0  0  0  0  0  0  0  0  0  0
  1  2  1  0
  2  3  2  0
  2 10  1  0
  3  4  1  0
  3  7  1  0
  4  5  2  0
  5  6  1  0
  6  7  1  0
  6 21  1  0
  7  8  2  0
  8  9  1  0
  9 10  2  0
  9 11  1  0
 11 12  1  0
 12 13  2  0
 12 14  1  0
 14 15  2  0
 14 18  1  0
 15 16  1  0
 15 20  1  0
 16 17  1  0
 17 18  2  0
 18 19  1  0
 21 22  1  0
 22 23  1  0
 23 24  1  0
 24 25  1  0
 25 26  2  0
 25 27  1  0
 25 28  1  0
M  END
>  <Gold.Gold.Protein.RotatedWaterAtoms>  (206) 


>  <Gold.Id.Protein>  (206) 


>  <Gold.PLP.Chemscore.CHOScore>  (206) 
0.3508

>  <Gold.PLP.Chemscore.Hbond>  (206) 
3.7750

>  <Gold.PLP.Chemscore.Internal.Correction>  (206) 
0.5809

>  <Gold.PLP.Chemscore.Metal>  (206) 
0.0000

>  <Gold.PLP.Fitness>  (206) 
52.7768

>  <Gold.PLP.PLP>  (206) 
-43.0396

>  <Gold.PLP.ligand.clash>  (206) 
0.0000

>  <Gold.PLP.ligand.torsion>  (206) 
1.6106

>  <Gold.PLP.part.buried>  (206) 
-9.0838

>  <Gold.PLP.part.hbond>  (206) 
-5.1774

>  <Gold.PLP.part.metal>  (206) 
0.0000

>  <Gold.PLP.part.nonpolar>  (206) 
-29.9693

>  <Gold.PLP.part.repulsive>  (206) 
0.4230

>  <Gold.Protein.RotatedAtoms>  (206) 


>  <Gold.Protein.RotatedTorsions>  (206) 


>  <Gold.Protein.RotatedWaterAtoms>  (206) 


>  <Gold.Version>  (206) 
5.3.0

>  <PLP.Chemscore.CHOScore>  (206) 


>  <PLP.Chemscore.Hbond>  (206) 


>  <PLP.Chemscore.Internal.Correction>  (206) 


>  <PLP.Chemscore.Metal>  (206) 


>  <PLP.Fitness>  (206) 


>  <PLP.PLP>  (206) 


>  <PLP.ligand.clash>  (206) 


>  <PLP.ligand.torsion>  (206) 


>  <PLP.part.buried>  (206) 


>  <PLP.part.hbond>  (206) 


>  <PLP.part.metal>  (206) 


>  <PLP.part.nonpolar>  (206) 


>  <PLP.part.repulsive>  (206) 


>  <Version>  (206) 


$$$$
3206|Compound_1955|Compounds_3D_F|sdf|571|dock1|1
     RDKit          3D

 18 19  0  0  0  0  0  0  0  0999 V2000
  -11.8378  -18.7448   12.6042 O   0  0  0  0  0  0  0  0  0  0  0  0
  -11.0392  -18.2560   11.6249 C   0  0  0  0  0  0  0  0  0  0  0  0
  -11.3079  -18.5575   10.3647 N   0  0  0  0  0  0  0  0  0  0  0  0
  -10.5508  -18.0995    9.3786 C   0  0  0  0  0  0  0  0  0  0  0  0
   -9.4665  -17.2961    9.6777 C   0  0  0  0  0  0  0  0  0  0  0  0
   -8.2376  -16.5445    8.1559 I   0  0  0  0  0  0  0  0  0  0  0  0
   -9.2096  -16.9961   11.0164 C   0  0  0  0  0  0  0  0  0  0  0  0
  -10.0143  -17.4868   11.9526 N   0  0  0  0  0  0  0  0  0  0  0  0
   -8.1311  -16.1921   11.3646 N   0  0  0  0  0  0  0  0  0  0  0  0
   -8.3058  -14.8666   11.5366 C   0  0  0  0  0  0  0  0  0  0  0  0
   -9.4080  -14.3749   11.3871 O   0  0  0  0  0  0  0  0  0  0  0  0
   -7.1622  -14.0144   11.9065 C   0  0  0  0  0  0  0  0  0  0  0  0
   -7.0918  -12.6430   11.9423 C   0  0  0  0  0  0  0  0  0  0  0  0
   -5.8536  -12.3406   12.3361 O   0  0  0  0  0  0  0  0  0  0  0  0
   -5.1699  -13.3135   12.5433 N   0  0  0  0  0  0  0  0  0  0  0  0
   -5.8154  -14.4231   12.3348 C   0  0  0  0  0  0  0  0  0  0  0  0
   -5.2919  -15.8276   12.4889 C   0  0  0  0  0  0  0  0  0  0  0  0
   -8.1943  -11.6730   11.6026 C   0  0  0  0  0  0  0  0  0  0  0  0
  1  2  1  0
  2  3  2  0
  2  8  1  0
  3  4  1  0
  4  5  2  0
  5  6  1  0
  5  7  1  0
  7  8  2  0
  7  9  1  0
  9 10  1  0
 10 11  2  0
 10 12  1  0
 12 13  2  0
 12 16  1  0
 13 14  1  0
 13 18  1  0
 14 15  1  0
 15 16  2  0
 16 17  1  0
M  END
>  <Gold.Gold.Protein.RotatedWaterAtoms>  (207) 


>  <Gold.Id.Protein>  (207) 


>  <Gold.PLP.Chemscore.CHOScore>  (207) 
0.0000

>  <Gold.PLP.Chemscore.Hbond>  (207) 
1.5440

>  <Gold.PLP.Chemscore.Internal.Correction>  (207) 
0.3299

>  <Gold.PLP.Chemscore.Metal>  (207) 
0.0000

>  <Gold.PLP.Fitness>  (207) 
42.1963

>  <Gold.PLP.PLP>  (207) 
-38.8210

>  <Gold.PLP.ligand.clash>  (207) 
0.0000

>  <Gold.PLP.ligand.torsion>  (207) 
0.7933

>  <Gold.PLP.part.buried>  (207) 
-8.7051

>  <Gold.PLP.part.hbond>  (207) 
-2.8078

>  <Gold.PLP.part.metal>  (207) 
0.0000

>  <Gold.PLP.part.nonpolar>  (207) 
-29.2581

>  <Gold.PLP.part.repulsive>  (207) 
0.8515

>  <Gold.Protein.RotatedAtoms>  (207) 


>  <Gold.Protein.RotatedTorsions>  (207) 


>  <Gold.Protein.RotatedWaterAtoms>  (207) 


>  <Gold.Version>  (207) 
5.3.0

>  <PLP.Chemscore.CHOScore>  (207) 


>  <PLP.Chemscore.Hbond>  (207) 


>  <PLP.Chemscore.Internal.Correction>  (207) 


>  <PLP.Chemscore.Metal>  (207) 


>  <PLP.Fitness>  (207) 


>  <PLP.PLP>  (207) 


>  <PLP.ligand.clash>  (207) 


>  <PLP.ligand.torsion>  (207) 


>  <PLP.part.buried>  (207) 


>  <PLP.part.hbond>  (207) 


>  <PLP.part.metal>  (207) 


>  <PLP.part.nonpolar>  (207) 


>  <PLP.part.repulsive>  (207) 


>  <Version>  (207) 


$$$$
3207|Compound_1955|Compounds_3D_F|sdf|571|dock2|1
     RDKit          3D

 18 19  0  0  0  0  0  0  0  0999 V2000
  -12.3765  -18.4071   12.5438 O   0  0  0  0  0  0  0  0  0  0  0  0
  -11.4199  -18.2660   11.5948 C   0  0  0  0  0  0  0  0  0  0  0  0
  -11.5753  -18.8728   10.4291 N   0  0  0  0  0  0  0  0  0  0  0  0
  -10.6624  -18.7598    9.4755 C   0  0  0  0  0  0  0  0  0  0  0  0
   -9.5343  -17.9958    9.7085 C   0  0  0  0  0  0  0  0  0  0  0  0
   -8.0608  -17.7833    8.2340 I   0  0  0  0  0  0  0  0  0  0  0  0
   -9.3998  -17.3683   10.9480 C   0  0  0  0  0  0  0  0  0  0  0  0
  -10.3576  -17.5223   11.8555 N   0  0  0  0  0  0  0  0  0  0  0  0
   -8.2830  -16.5900   11.2270 N   0  0  0  0  0  0  0  0  0  0  0  0
   -8.4311  -15.3780   11.7980 C   0  0  0  0  0  0  0  0  0  0  0  0
   -9.5429  -14.9662   12.0692 O   0  0  0  0  0  0  0  0  0  0  0  0
   -7.2468  -14.5532   12.0944 C   0  0  0  0  0  0  0  0  0  0  0  0
   -7.1466  -13.1841   12.1440 C   0  0  0  0  0  0  0  0  0  0  0  0
   -5.8770  -12.9112   12.4496 O   0  0  0  0  0  0  0  0  0  0  0  0
   -5.1995  -13.8998   12.5922 N   0  0  0  0  0  0  0  0  0  0  0  0
   -5.8805  -14.9938   12.4165 C   0  0  0  0  0  0  0  0  0  0  0  0
   -5.3751  -16.4101   12.5120 C   0  0  0  0  0  0  0  0  0  0  0  0
   -8.2516  -12.1884   11.9001 C   0  0  0  0  0  0  0  0  0  0  0  0
  1  2  1  0
  2  3  2  0
  2  8  1  0
  3  4  1  0
  4  5  2  0
  5  6  1  0
  5  7  1  0
  7  8  2  0
  7  9  1  0
  9 10  1  0
 10 11  2  0
 10 12  1  0
 12 13  2  0
 12 16  1  0
 13 14  1  0
 13 18  1  0
 14 15  1  0
 15 16  2  0
 16 17  1  0
M  END
>  <Gold.Gold.Protein.RotatedWaterAtoms>  (208) 


>  <Gold.Id.Protein>  (208) 


>  <Gold.PLP.Chemscore.CHOScore>  (208) 
0.0000

>  <Gold.PLP.Chemscore.Hbond>  (208) 
1.7120

>  <Gold.PLP.Chemscore.Internal.Correction>  (208) 
0.3299

>  <Gold.PLP.Chemscore.Metal>  (208) 
0.0000

>  <Gold.PLP.Fitness>  (208) 
42.5274

>  <Gold.PLP.PLP>  (208) 
-38.5569

>  <Gold.PLP.ligand.clash>  (208) 
0.0000

>  <Gold.PLP.ligand.torsion>  (208) 
0.7477

>  <Gold.PLP.part.buried>  (208) 
-8.7228

>  <Gold.PLP.part.hbond>  (208) 
-3.0000

>  <Gold.PLP.part.metal>  (208) 
0.0000

>  <Gold.PLP.part.nonpolar>  (208) 
-27.4634

>  <Gold.PLP.part.repulsive>  (208) 
0.7114

>  <Gold.Protein.RotatedAtoms>  (208) 


>  <Gold.Protein.RotatedTorsions>  (208) 


>  <Gold.Protein.RotatedWaterAtoms>  (208) 


>  <Gold.Version>  (208) 
5.3.0

>  <PLP.Chemscore.CHOScore>  (208) 


>  <PLP.Chemscore.Hbond>  (208) 


>  <PLP.Chemscore.Internal.Correction>  (208) 


>  <PLP.Chemscore.Metal>  (208) 


>  <PLP.Fitness>  (208) 


>  <PLP.PLP>  (208) 


>  <PLP.ligand.clash>  (208) 


>  <PLP.ligand.torsion>  (208) 


>  <PLP.part.buried>  (208) 


>  <PLP.part.hbond>  (208) 


>  <PLP.part.metal>  (208) 


>  <PLP.part.nonpolar>  (208) 


>  <PLP.part.repulsive>  (208) 


>  <Version>  (208) 


$$$$
3208|Compound_1955|Compounds_3D_F|sdf|571|dock3|1
     RDKit          3D

 18 19  0  0  0  0  0  0  0  0999 V2000
  -11.3851  -18.1247   12.4707 O   0  0  0  0  0  0  0  0  0  0  0  0
  -10.6006  -17.6065   11.4952 C   0  0  0  0  0  0  0  0  0  0  0  0
  -10.7880  -17.9950   10.2441 N   0  0  0  0  0  0  0  0  0  0  0  0
  -10.0414  -17.5120    9.2620 C   0  0  0  0  0  0  0  0  0  0  0  0
   -9.0545  -16.5897    9.5555 C   0  0  0  0  0  0  0  0  0  0  0  0
   -7.8466  -15.7937    8.0395 I   0  0  0  0  0  0  0  0  0  0  0  0
   -8.8819  -16.2001   10.8846 C   0  0  0  0  0  0  0  0  0  0  0  0
   -9.6705  -16.7228   11.8170 N   0  0  0  0  0  0  0  0  0  0  0  0
   -7.9028  -15.2754   11.2269 N   0  0  0  0  0  0  0  0  0  0  0  0
   -8.2508  -14.0159   11.5580 C   0  0  0  0  0  0  0  0  0  0  0  0
   -9.4224  -13.6895   11.5572 O   0  0  0  0  0  0  0  0  0  0  0  0
   -7.2126  -13.0358   11.9217 C   0  0  0  0  0  0  0  0  0  0  0  0
   -7.2840  -11.6642   11.9004 C   0  0  0  0  0  0  0  0  0  0  0  0
   -6.0961  -11.2197   12.3141 O   0  0  0  0  0  0  0  0  0  0  0  0
   -5.3233  -12.1075   12.5812 N   0  0  0  0  0  0  0  0  0  0  0  0
   -5.8451  -13.2855   12.4033 C   0  0  0  0  0  0  0  0  0  0  0  0
   -5.1856  -14.6209   12.6316 C   0  0  0  0  0  0  0  0  0  0  0  0
   -8.4689  -10.8278   11.4899 C   0  0  0  0  0  0  0  0  0  0  0  0
  1  2  1  0
  2  3  2  0
  2  8  1  0
  3  4  1  0
  4  5  2  0
  5  6  1  0
  5  7  1  0
  7  8  2  0
  7  9  1  0
  9 10  1  0
 10 11  2  0
 10 12  1  0
 12 13  2  0
 12 16  1  0
 13 14  1  0
 13 18  1  0
 14 15  1  0
 15 16  2  0
 16 17  1  0
M  END
>  <Gold.Gold.Protein.RotatedWaterAtoms>  (209) 


>  <Gold.Id.Protein>  (209) 


>  <Gold.PLP.Chemscore.CHOScore>  (209) 
0.0000

>  <Gold.PLP.Chemscore.Hbond>  (209) 
1.9040

>  <Gold.PLP.Chemscore.Internal.Correction>  (209) 
0.3299

>  <Gold.PLP.Chemscore.Metal>  (209) 
0.0000

>  <Gold.PLP.Fitness>  (209) 
45.1207

>  <Gold.PLP.PLP>  (209) 
-40.8644

>  <Gold.PLP.ligand.clash>  (209) 
0.0000

>  <Gold.PLP.ligand.torsion>  (209) 
0.8928

>  <Gold.PLP.part.buried>  (209) 
-6.1168

>  <Gold.PLP.part.hbond>  (209) 
-4.0163

>  <Gold.PLP.part.metal>  (209) 
0.0000

>  <Gold.PLP.part.nonpolar>  (209) 
-31.7552

>  <Gold.PLP.part.repulsive>  (209) 
0.9104

>  <Gold.Protein.RotatedAtoms>  (209) 


>  <Gold.Protein.RotatedTorsions>  (209) 


>  <Gold.Protein.RotatedWaterAtoms>  (209) 


>  <Gold.Version>  (209) 
5.3.0

>  <PLP.Chemscore.CHOScore>  (209) 


>  <PLP.Chemscore.Hbond>  (209) 


>  <PLP.Chemscore.Internal.Correction>  (209) 


>  <PLP.Chemscore.Metal>  (209) 


>  <PLP.Fitness>  (209) 


>  <PLP.PLP>  (209) 


>  <PLP.ligand.clash>  (209) 


>  <PLP.ligand.torsion>  (209) 


>  <PLP.part.buried>  (209) 


>  <PLP.part.hbond>  (209) 


>  <PLP.part.metal>  (209) 


>  <PLP.part.nonpolar>  (209) 


>  <PLP.part.repulsive>  (209) 


>  <Version>  (209) 


$$$$
3209|Compound_1961|Compounds_3D_F|sdf|572|dock1|1
     RDKit          3D

 20 21  0  0  0  0  0  0  0  0999 V2000
   -8.2470  -16.8001   11.6479 N   0  0  0  0  0  0  0  0  0  0  0  0
   -8.3083  -15.4876   11.3465 C   0  0  0  0  0  0  0  0  0  0  0  0
   -9.2032  -15.0680   10.6397 O   0  0  0  0  0  0  0  0  0  0  0  0
   -7.2896  -14.5626   11.8748 C   0  0  0  0  0  0  0  0  0  0  0  0
   -6.0508  -14.8571   12.3901 C   0  0  0  0  0  0  0  0  0  0  0  0
   -5.5017  -13.6901   12.7358 O   0  0  0  0  0  0  0  0  0  0  0  0
   -6.2142  -12.7443   12.5076 N   0  0  0  0  0  0  0  0  0  0  0  0
   -7.3464  -13.0963   11.9744 C   0  0  0  0  0  0  0  0  0  0  0  0
   -8.4801  -12.1948   11.5561 C   0  0  0  0  0  0  0  0  0  0  0  0
   -5.4349  -16.2241   12.5377 C   0  0  0  0  0  0  0  0  0  0  0  0
   -9.1967  -17.6664   11.1500 C   0  0  0  0  0  0  0  0  0  0  0  0
   -9.1418  -18.9830   11.1765 N   0  0  0  0  0  0  0  0  0  0  0  0
  -10.1978  -19.4659   10.6243 N   0  0  0  0  0  0  0  0  0  0  0  0
  -10.9688  -18.4793   10.2238 C   0  0  0  0  0  0  0  0  0  0  0  0
  -10.3511  -17.3235   10.5556 O   0  0  0  0  0  0  0  0  0  0  0  0
  -12.2663  -18.6090    9.5475 C   0  0  0  0  0  0  0  0  0  0  0  0
  -12.8945  -17.6136    9.2429 O   0  0  0  0  0  0  0  0  0  0  0  0
  -12.7588  -19.8321    9.2640 O   0  0  0  0  0  0  0  0  0  0  0  0
  -14.0528  -19.8839    8.6072 C   0  0  0  0  0  0  0  0  0  0  0  0
  -14.2485  -21.2638    7.9748 C   0  0  0  0  0  0  0  0  0  0  0  0
  1  2  1  0
  1 11  1  0
  2  3  2  0
  2  4  1  0
  4  5  2  0
  4  8  1  0
  5  6  1  0
  5 10  1  0
  6  7  1  0
  7  8  2  0
  8  9  1  0
 11 12  2  0
 11 15  1  0
 12 13  1  0
 13 14  2  0
 14 15  1  0
 14 16  1  0
 16 17  2  0
 16 18  1  0
 18 19  1  0
 19 20  1  0
M  END
>  <Gold.Gold.Protein.RotatedWaterAtoms>  (210) 


>  <Gold.Id.Protein>  (210) 


>  <Gold.PLP.Chemscore.CHOScore>  (210) 
0.0000

>  <Gold.PLP.Chemscore.Hbond>  (210) 
1.0000

>  <Gold.PLP.Chemscore.Internal.Correction>  (210) 
0.1046

>  <Gold.PLP.Chemscore.Metal>  (210) 
0.0000

>  <Gold.PLP.Fitness>  (210) 
47.8900

>  <Gold.PLP.PLP>  (210) 
-45.2824

>  <Gold.PLP.ligand.clash>  (210) 
0.0000

>  <Gold.PLP.ligand.torsion>  (210) 
0.2485

>  <Gold.PLP.part.buried>  (210) 
-9.1827

>  <Gold.PLP.part.hbond>  (210) 
-2.9660

>  <Gold.PLP.part.metal>  (210) 
0.0000

>  <Gold.PLP.part.nonpolar>  (210) 
-32.9481

>  <Gold.PLP.part.repulsive>  (210) 
0.7175

>  <Gold.Protein.RotatedAtoms>  (210) 


>  <Gold.Protein.RotatedTorsions>  (210) 


>  <Gold.Protein.RotatedWaterAtoms>  (210) 


>  <Gold.Version>  (210) 
5.3.0

>  <PLP.Chemscore.CHOScore>  (210) 


>  <PLP.Chemscore.Hbond>  (210) 


>  <PLP.Chemscore.Internal.Correction>  (210) 


>  <PLP.Chemscore.Metal>  (210) 


>  <PLP.Fitness>  (210) 


>  <PLP.PLP>  (210) 


>  <PLP.ligand.clash>  (210) 


>  <PLP.ligand.torsion>  (210) 


>  <PLP.part.buried>  (210) 


>  <PLP.part.hbond>  (210) 


>  <PLP.part.metal>  (210) 


>  <PLP.part.nonpolar>  (210) 


>  <PLP.part.repulsive>  (210) 


>  <Version>  (210) 


$$$$
3210|Compound_1961|Compounds_3D_F|sdf|572|dock2|1
     RDKit          3D

 20 21  0  0  0  0  0  0  0  0999 V2000
   -7.8523  -16.5410   11.6949 N   0  0  0  0  0  0  0  0  0  0  0  0
   -8.1702  -15.2455   11.8890 C   0  0  0  0  0  0  0  0  0  0  0  0
   -9.3361  -14.9098   11.9562 O   0  0  0  0  0  0  0  0  0  0  0  0
   -7.1032  -14.2371   12.0198 C   0  0  0  0  0  0  0  0  0  0  0  0
   -5.7691  -14.4316   12.2831 C   0  0  0  0  0  0  0  0  0  0  0  0
   -5.2109  -13.2189   12.3057 O   0  0  0  0  0  0  0  0  0  0  0  0
   -5.9985  -12.3300   12.0960 N   0  0  0  0  0  0  0  0  0  0  0  0
   -7.2032  -12.7750   11.8946 C   0  0  0  0  0  0  0  0  0  0  0  0
   -8.4411  -11.9650   11.6042 C   0  0  0  0  0  0  0  0  0  0  0  0
   -5.0744  -15.7500   12.5043 C   0  0  0  0  0  0  0  0  0  0  0  0
   -8.8499  -17.4837   11.5676 C   0  0  0  0  0  0  0  0  0  0  0  0
   -8.6955  -18.7364   11.1883 N   0  0  0  0  0  0  0  0  0  0  0  0
   -9.8385  -19.3253   11.1830 N   0  0  0  0  0  0  0  0  0  0  0  0
  -10.7676  -18.4744   11.5585 C   0  0  0  0  0  0  0  0  0  0  0  0
  -10.1566  -17.2959   11.8145 O   0  0  0  0  0  0  0  0  0  0  0  0
  -12.2039  -18.7546   11.6844 C   0  0  0  0  0  0  0  0  0  0  0  0
  -12.8585  -18.1969   12.5439 O   0  0  0  0  0  0  0  0  0  0  0  0
  -12.7956  -19.6295   10.8457 O   0  0  0  0  0  0  0  0  0  0  0  0
  -14.1958  -19.4005   10.5371 C   0  0  0  0  0  0  0  0  0  0  0  0
  -14.5040  -19.9384    9.1378 C   0  0  0  0  0  0  0  0  0  0  0  0
  1  2  1  0
  1 11  1  0
  2  3  2  0
  2  4  1  0
  4  5  2  0
  4  8  1  0
  5  6  1  0
  5 10  1  0
  6  7  1  0
  7  8  2  0
  8  9  1  0
 11 12  2  0
 11 15  1  0
 12 13  1  0
 13 14  2  0
 14 15  1  0
 14 16  1  0
 16 17  2  0
 16 18  1  0
 18 19  1  0
 19 20  1  0
M  END
>  <Gold.Gold.Protein.RotatedWaterAtoms>  (211) 


>  <Gold.Id.Protein>  (211) 


>  <Gold.PLP.Chemscore.CHOScore>  (211) 
0.0000

>  <Gold.PLP.Chemscore.Hbond>  (211) 
1.4191

>  <Gold.PLP.Chemscore.Internal.Correction>  (211) 
0.0246

>  <Gold.PLP.Chemscore.Metal>  (211) 
0.0000

>  <Gold.PLP.Fitness>  (211) 
48.1693

>  <Gold.PLP.PLP>  (211) 
-46.2168

>  <Gold.PLP.ligand.clash>  (211) 
0.0146

>  <Gold.PLP.ligand.torsion>  (211) 
1.1574

>  <Gold.PLP.part.buried>  (211) 
-12.2449

>  <Gold.PLP.part.hbond>  (211) 
-3.0958

>  <Gold.PLP.part.metal>  (211) 
0.0000

>  <Gold.PLP.part.nonpolar>  (211) 
-33.2002

>  <Gold.PLP.part.repulsive>  (211) 
0.9538

>  <Gold.Protein.RotatedAtoms>  (211) 


>  <Gold.Protein.RotatedTorsions>  (211) 


>  <Gold.Protein.RotatedWaterAtoms>  (211) 


>  <Gold.Version>  (211) 
5.3.0

>  <PLP.Chemscore.CHOScore>  (211) 


>  <PLP.Chemscore.Hbond>  (211) 


>  <PLP.Chemscore.Internal.Correction>  (211) 


>  <PLP.Chemscore.Metal>  (211) 


>  <PLP.Fitness>  (211) 


>  <PLP.PLP>  (211) 


>  <PLP.ligand.clash>  (211) 


>  <PLP.ligand.torsion>  (211) 


>  <PLP.part.buried>  (211) 


>  <PLP.part.hbond>  (211) 


>  <PLP.part.metal>  (211) 


>  <PLP.part.nonpolar>  (211) 


>  <PLP.part.repulsive>  (211) 


>  <Version>  (211) 


$$$$
3211|Compound_1961|Compounds_3D_F|sdf|572|dock3|1
     RDKit          3D

 20 21  0  0  0  0  0  0  0  0999 V2000
   -8.1764  -17.0531   11.1736 N   0  0  0  0  0  0  0  0  0  0  0  0
   -8.4463  -15.7911   11.5630 C   0  0  0  0  0  0  0  0  0  0  0  0
   -9.5862  -15.3726   11.5189 O   0  0  0  0  0  0  0  0  0  0  0  0
   -7.3583  -14.9198   12.0422 C   0  0  0  0  0  0  0  0  0  0  0  0
   -6.1014  -15.2752   12.4676 C   0  0  0  0  0  0  0  0  0  0  0  0
   -5.4836  -14.1394   12.8011 O   0  0  0  0  0  0  0  0  0  0  0  0
   -6.1704  -13.1610   12.6412 N   0  0  0  0  0  0  0  0  0  0  0  0
   -7.3485  -13.4553   12.1769 C   0  0  0  0  0  0  0  0  0  0  0  0
   -8.4695  -12.5001   11.8545 C   0  0  0  0  0  0  0  0  0  0  0  0
   -5.5335  -16.6685   12.5444 C   0  0  0  0  0  0  0  0  0  0  0  0
   -9.1929  -17.8667   10.7208 C   0  0  0  0  0  0  0  0  0  0  0  0
   -9.1131  -19.1630   10.4963 N   0  0  0  0  0  0  0  0  0  0  0  0
  -10.2506  -19.5956   10.0814 N   0  0  0  0  0  0  0  0  0  0  0  0
  -11.1017  -18.5953   10.0245 C   0  0  0  0  0  0  0  0  0  0  0  0
  -10.4482  -17.4850   10.4344 O   0  0  0  0  0  0  0  0  0  0  0  0
  -12.5061  -18.6713    9.6011 C   0  0  0  0  0  0  0  0  0  0  0  0
  -13.1332  -17.6511    9.3909 O   0  0  0  0  0  0  0  0  0  0  0  0
  -13.0984  -19.8728    9.4446 O   0  0  0  0  0  0  0  0  0  0  0  0
  -14.4436  -19.8768    8.8979 C   0  0  0  0  0  0  0  0  0  0  0  0
  -14.7928  -21.2859    8.4134 C   0  0  0  0  0  0  0  0  0  0  0  0
  1  2  1  0
  1 11  1  0
  2  3  2  0
  2  4  1  0
  4  5  2  0
  4  8  1  0
  5  6  1  0
  5 10  1  0
  6  7  1  0
  7  8  2  0
  8  9  1  0
 11 12  2  0
 11 15  1  0
 12 13  1  0
 13 14  2  0
 14 15  1  0
 14 16  1  0
 16 17  2  0
 16 18  1  0
 18 19  1  0
 19 20  1  0
M  END
>  <Gold.Gold.Protein.RotatedWaterAtoms>  (212) 


>  <Gold.Id.Protein>  (212) 


>  <Gold.PLP.Chemscore.CHOScore>  (212) 
0.0000

>  <Gold.PLP.Chemscore.Hbond>  (212) 
1.0000

>  <Gold.PLP.Chemscore.Internal.Correction>  (212) 
0.0246

>  <Gold.PLP.Chemscore.Metal>  (212) 
0.0000

>  <Gold.PLP.Fitness>  (212) 
46.5920

>  <Gold.PLP.PLP>  (212) 
-44.2049

>  <Gold.PLP.ligand.clash>  (212) 
0.0000

>  <Gold.PLP.ligand.torsion>  (212) 
0.3187

>  <Gold.PLP.part.buried>  (212) 
-9.5432

>  <Gold.PLP.part.hbond>  (212) 
-2.0851

>  <Gold.PLP.part.metal>  (212) 
0.0000

>  <Gold.PLP.part.nonpolar>  (212) 
-31.9920

>  <Gold.PLP.part.repulsive>  (212) 
0.6579

>  <Gold.Protein.RotatedAtoms>  (212) 


>  <Gold.Protein.RotatedTorsions>  (212) 


>  <Gold.Protein.RotatedWaterAtoms>  (212) 


>  <Gold.Version>  (212) 
5.3.0

>  <PLP.Chemscore.CHOScore>  (212) 


>  <PLP.Chemscore.Hbond>  (212) 


>  <PLP.Chemscore.Internal.Correction>  (212) 


>  <PLP.Chemscore.Metal>  (212) 


>  <PLP.Fitness>  (212) 


>  <PLP.PLP>  (212) 


>  <PLP.ligand.clash>  (212) 


>  <PLP.ligand.torsion>  (212) 


>  <PLP.part.buried>  (212) 


>  <PLP.part.hbond>  (212) 


>  <PLP.part.metal>  (212) 


>  <PLP.part.nonpolar>  (212) 


>  <PLP.part.repulsive>  (212) 


>  <Version>  (212) 


$$$$
3212|Compound_1966|Compounds_3D_F|sdf|573|dock1|1
     RDKit          3D

 19 20  0  0  0  0  0  0  0  0999 V2000
   -9.3971  -16.4090   11.8306 N   0  0  0  0  0  0  0  0  0  0  0  0
   -8.0527  -16.3344   11.7673 C   0  0  0  0  0  0  0  0  0  0  0  0
   -7.4054  -17.3060   11.4266 O   0  0  0  0  0  0  0  0  0  0  0  0
   -7.3681  -15.0751   12.1110 C   0  0  0  0  0  0  0  0  0  0  0  0
   -6.0277  -14.8586   12.3190 C   0  0  0  0  0  0  0  0  0  0  0  0
   -5.8973  -13.5601   12.6035 O   0  0  0  0  0  0  0  0  0  0  0  0
   -6.9468  -12.9660   12.5982 N   0  0  0  0  0  0  0  0  0  0  0  0
   -7.9511  -13.7395   12.3097 C   0  0  0  0  0  0  0  0  0  0  0  0
   -9.4044  -13.3518   12.2090 C   0  0  0  0  0  0  0  0  0  0  0  0
   -4.9243  -15.8815   12.2439 C   0  0  0  0  0  0  0  0  0  0  0  0
  -10.0445  -17.6006   11.5107 C   0  0  0  0  0  0  0  0  0  0  0  0
  -10.9244  -18.2154   12.2524 N   0  0  0  0  0  0  0  0  0  0  0  0
  -11.3342  -19.3829   11.5636 O   0  0  0  0  0  0  0  0  0  0  0  0
  -10.6281  -19.4259   10.3364 N   0  0  0  0  0  0  0  0  0  0  0  0
   -9.8592  -18.3752   10.2793 C   0  0  0  0  0  0  0  0  0  0  0  0
   -9.0008  -18.0472    9.2310 N   0  0  0  0  0  0  0  0  0  0  0  0
   -9.0999  -16.8455    8.6293 C   0  0  0  0  0  0  0  0  0  0  0  0
   -9.9363  -16.0492    9.0005 O   0  0  0  0  0  0  0  0  0  0  0  0
   -8.1718  -16.4901    7.4961 C   0  0  0  0  0  0  0  0  0  0  0  0
  1  2  1  0
  1 11  1  0
  2  3  2  0
  2  4  1  0
  4  5  2  0
  4  8  1  0
  5  6  1  0
  5 10  1  0
  6  7  1  0
  7  8  2  0
  8  9  1  0
 11 12  2  0
 11 15  1  0
 12 13  1  0
 13 14  1  0
 14 15  2  0
 15 16  1  0
 16 17  1  0
 17 18  2  0
 17 19  1  0
M  END
>  <Gold.Gold.Protein.RotatedWaterAtoms>  (213) 


>  <Gold.Id.Protein>  (213) 


>  <Gold.PLP.Chemscore.CHOScore>  (213) 
0.0000

>  <Gold.PLP.Chemscore.Hbond>  (213) 
1.6360

>  <Gold.PLP.Chemscore.Internal.Correction>  (213) 
0.0023

>  <Gold.PLP.Chemscore.Metal>  (213) 
0.0000

>  <Gold.PLP.Fitness>  (213) 
41.0000

>  <Gold.PLP.PLP>  (213) 
-38.1655

>  <Gold.PLP.ligand.clash>  (213) 
0.0000

>  <Gold.PLP.ligand.torsion>  (213) 
1.0379

>  <Gold.PLP.part.buried>  (213) 
-8.6360

>  <Gold.PLP.part.hbond>  (213) 
-3.0000

>  <Gold.PLP.part.metal>  (213) 
0.0000

>  <Gold.PLP.part.nonpolar>  (213) 
-26.0234

>  <Gold.PLP.part.repulsive>  (213) 
0.9754

>  <Gold.Protein.RotatedAtoms>  (213) 


>  <Gold.Protein.RotatedTorsions>  (213) 


>  <Gold.Protein.RotatedWaterAtoms>  (213) 


>  <Gold.Version>  (213) 
5.3.0

>  <PLP.Chemscore.CHOScore>  (213) 


>  <PLP.Chemscore.Hbond>  (213) 


>  <PLP.Chemscore.Internal.Correction>  (213) 


>  <PLP.Chemscore.Metal>  (213) 


>  <PLP.Fitness>  (213) 


>  <PLP.PLP>  (213) 


>  <PLP.ligand.clash>  (213) 


>  <PLP.ligand.torsion>  (213) 


>  <PLP.part.buried>  (213) 


>  <PLP.part.hbond>  (213) 


>  <PLP.part.metal>  (213) 


>  <PLP.part.nonpolar>  (213) 


>  <PLP.part.repulsive>  (213) 


>  <Version>  (213) 


$$$$
3213|Compound_1966|Compounds_3D_F|sdf|573|dock2|1
     RDKit          3D

 19 20  0  0  0  0  0  0  0  0999 V2000
   -8.1760  -16.3445   11.6958 N   0  0  0  0  0  0  0  0  0  0  0  0
   -8.2244  -15.0223   11.4375 C   0  0  0  0  0  0  0  0  0  0  0  0
   -9.1703  -14.5555   10.8322 O   0  0  0  0  0  0  0  0  0  0  0  0
   -7.1308  -14.1434   11.8892 C   0  0  0  0  0  0  0  0  0  0  0  0
   -7.1118  -12.7721   11.9682 C   0  0  0  0  0  0  0  0  0  0  0  0
   -5.9045  -12.4401   12.4331 O   0  0  0  0  0  0  0  0  0  0  0  0
   -5.1990  -13.3950   12.6449 N   0  0  0  0  0  0  0  0  0  0  0  0
   -5.7932  -14.5186   12.3721 C   0  0  0  0  0  0  0  0  0  0  0  0
   -5.2285  -15.9093   12.5125 C   0  0  0  0  0  0  0  0  0  0  0  0
   -8.2285  -11.8299   11.6015 C   0  0  0  0  0  0  0  0  0  0  0  0
   -9.2070  -17.1766   11.2647 C   0  0  0  0  0  0  0  0  0  0  0  0
  -10.4760  -17.0182   11.5235 N   0  0  0  0  0  0  0  0  0  0  0  0
  -11.1822  -18.0763   10.9011 O   0  0  0  0  0  0  0  0  0  0  0  0
  -10.2330  -18.8933   10.2391 N   0  0  0  0  0  0  0  0  0  0  0  0
   -9.0529  -18.3768   10.4360 C   0  0  0  0  0  0  0  0  0  0  0  0
   -7.8484  -18.8826    9.9496 N   0  0  0  0  0  0  0  0  0  0  0  0
   -7.7840  -19.3872    8.7017 C   0  0  0  0  0  0  0  0  0  0  0  0
   -8.7747  -19.4009    8.0018 O   0  0  0  0  0  0  0  0  0  0  0  0
   -6.4819  -19.9340    8.1750 C   0  0  0  0  0  0  0  0  0  0  0  0
  1  2  1  0
  1 11  1  0
  2  3  2  0
  2  4  1  0
  4  5  2  0
  4  8  1  0
  5  6  1  0
  5 10  1  0
  6  7  1  0
  7  8  2  0
  8  9  1  0
 11 12  2  0
 11 15  1  0
 12 13  1  0
 13 14  1  0
 14 15  2  0
 15 16  1  0
 16 17  1  0
 17 18  2  0
 17 19  1  0
M  END
>  <Gold.Gold.Protein.RotatedWaterAtoms>  (214) 


>  <Gold.Id.Protein>  (214) 


>  <Gold.PLP.Chemscore.CHOScore>  (214) 
0.0000

>  <Gold.PLP.Chemscore.Hbond>  (214) 
0.6634

>  <Gold.PLP.Chemscore.Internal.Correction>  (214) 
0.0023

>  <Gold.PLP.Chemscore.Metal>  (214) 
0.0000

>  <Gold.PLP.Fitness>  (214) 
37.2874

>  <Gold.PLP.PLP>  (214) 
-37.0799

>  <Gold.PLP.ligand.clash>  (214) 
0.0000

>  <Gold.PLP.ligand.torsion>  (214) 
0.8924

>  <Gold.PLP.part.buried>  (214) 
-10.0931

>  <Gold.PLP.part.hbond>  (214) 
-3.3447

>  <Gold.PLP.part.metal>  (214) 
0.0000

>  <Gold.PLP.part.nonpolar>  (214) 
-24.5245

>  <Gold.PLP.part.repulsive>  (214) 
0.8059

>  <Gold.Protein.RotatedAtoms>  (214) 


>  <Gold.Protein.RotatedTorsions>  (214) 


>  <Gold.Protein.RotatedWaterAtoms>  (214) 


>  <Gold.Version>  (214) 
5.3.0

>  <PLP.Chemscore.CHOScore>  (214) 


>  <PLP.Chemscore.Hbond>  (214) 


>  <PLP.Chemscore.Internal.Correction>  (214) 


>  <PLP.Chemscore.Metal>  (214) 


>  <PLP.Fitness>  (214) 


>  <PLP.PLP>  (214) 


>  <PLP.ligand.clash>  (214) 


>  <PLP.ligand.torsion>  (214) 


>  <PLP.part.buried>  (214) 


>  <PLP.part.hbond>  (214) 


>  <PLP.part.metal>  (214) 


>  <PLP.part.nonpolar>  (214) 


>  <PLP.part.repulsive>  (214) 


>  <Version>  (214) 


$$$$
3214|Compound_1966|Compounds_3D_F|sdf|573|dock3|1
     RDKit          3D

 19 20  0  0  0  0  0  0  0  0999 V2000
   -8.6820  -16.8211   11.7036 N   0  0  0  0  0  0  0  0  0  0  0  0
   -8.7511  -15.5022   11.9734 C   0  0  0  0  0  0  0  0  0  0  0  0
   -9.8330  -14.9705   12.1338 O   0  0  0  0  0  0  0  0  0  0  0  0
   -7.5152  -14.7055   12.0738 C   0  0  0  0  0  0  0  0  0  0  0  0
   -6.2376  -15.1368   12.3363 C   0  0  0  0  0  0  0  0  0  0  0  0
   -5.4644  -14.0477   12.3246 O   0  0  0  0  0  0  0  0  0  0  0  0
   -6.0767  -13.0341   12.0964 N   0  0  0  0  0  0  0  0  0  0  0  0
   -7.3446  -13.2537   11.9115 C   0  0  0  0  0  0  0  0  0  0  0  0
   -8.4137  -12.2360   11.6049 C   0  0  0  0  0  0  0  0  0  0  0  0
   -5.7962  -16.5546   12.5896 C   0  0  0  0  0  0  0  0  0  0  0  0
   -9.8502  -17.5738   11.6035 C   0  0  0  0  0  0  0  0  0  0  0  0
  -10.9812  -17.3127   12.1994 N   0  0  0  0  0  0  0  0  0  0  0  0
  -11.9083  -18.3184   11.8329 O   0  0  0  0  0  0  0  0  0  0  0  0
  -11.2443  -19.2152   10.9603 N   0  0  0  0  0  0  0  0  0  0  0  0
  -10.0218  -18.7916   10.8044 C   0  0  0  0  0  0  0  0  0  0  0  0
   -9.0415  -19.3965   10.0192 N   0  0  0  0  0  0  0  0  0  0  0  0
   -8.8391  -20.7264   10.0996 C   0  0  0  0  0  0  0  0  0  0  0  0
   -9.5104  -21.3969   10.8554 O   0  0  0  0  0  0  0  0  0  0  0  0
   -7.7797  -21.3810    9.2506 C   0  0  0  0  0  0  0  0  0  0  0  0
  1  2  1  0
  1 11  1  0
  2  3  2  0
  2  4  1  0
  4  5  2  0
  4  8  1  0
  5  6  1  0
  5 10  1  0
  6  7  1  0
  7  8  2  0
  8  9  1  0
 11 12  2  0
 11 15  1  0
 12 13  1  0
 13 14  1  0
 14 15  2  0
 15 16  1  0
 16 17  1  0
 17 18  2  0
 17 19  1  0
M  END
>  <Gold.Gold.Protein.RotatedWaterAtoms>  (215) 


>  <Gold.Id.Protein>  (215) 


>  <Gold.PLP.Chemscore.CHOScore>  (215) 
0.0000

>  <Gold.PLP.Chemscore.Hbond>  (215) 
1.2787

>  <Gold.PLP.Chemscore.Internal.Correction>  (215) 
0.0020

>  <Gold.PLP.Chemscore.Metal>  (215) 
0.0000

>  <Gold.PLP.Fitness>  (215) 
40.0880

>  <Gold.PLP.PLP>  (215) 
-37.8019

>  <Gold.PLP.ligand.clash>  (215) 
0.0000

>  <Gold.PLP.ligand.torsion>  (215) 
0.7760

>  <Gold.PLP.part.buried>  (215) 
-8.9189

>  <Gold.PLP.part.hbond>  (215) 
-2.5564

>  <Gold.PLP.part.metal>  (215) 
0.0000

>  <Gold.PLP.part.nonpolar>  (215) 
-25.7705

>  <Gold.PLP.part.repulsive>  (215) 
0.7240

>  <Gold.Protein.RotatedAtoms>  (215) 


>  <Gold.Protein.RotatedTorsions>  (215) 


>  <Gold.Protein.RotatedWaterAtoms>  (215) 


>  <Gold.Version>  (215) 
5.3.0

>  <PLP.Chemscore.CHOScore>  (215) 


>  <PLP.Chemscore.Hbond>  (215) 


>  <PLP.Chemscore.Internal.Correction>  (215) 


>  <PLP.Chemscore.Metal>  (215) 


>  <PLP.Fitness>  (215) 


>  <PLP.PLP>  (215) 


>  <PLP.ligand.clash>  (215) 


>  <PLP.ligand.torsion>  (215) 


>  <PLP.part.buried>  (215) 


>  <PLP.part.hbond>  (215) 


>  <PLP.part.metal>  (215) 


>  <PLP.part.nonpolar>  (215) 


>  <PLP.part.repulsive>  (215) 


>  <Version>  (215) 


$$$$
3215|Compound_1966|Compounds_3D_F|sdf|573|dock4|1
     RDKit          3D

 19 20  0  0  0  0  0  0  0  0999 V2000
   -8.5908  -16.5972   11.7936 N   0  0  0  0  0  0  0  0  0  0  0  0
   -8.6823  -15.2706   12.0146 C   0  0  0  0  0  0  0  0  0  0  0  0
   -9.7633  -14.7674   12.2537 O   0  0  0  0  0  0  0  0  0  0  0  0
   -7.4719  -14.4309   11.9664 C   0  0  0  0  0  0  0  0  0  0  0  0
   -7.3739  -13.0840   11.7148 C   0  0  0  0  0  0  0  0  0  0  0  0
   -6.0739  -12.7842   11.7794 O   0  0  0  0  0  0  0  0  0  0  0  0
   -5.3794  -13.7377   12.0300 N   0  0  0  0  0  0  0  0  0  0  0  0
   -6.0720  -14.8273   12.1818 C   0  0  0  0  0  0  0  0  0  0  0  0
   -5.5507  -16.2051   12.5018 C   0  0  0  0  0  0  0  0  0  0  0  0
   -8.5060  -12.1343   11.4218 C   0  0  0  0  0  0  0  0  0  0  0  0
   -9.7353  -17.3907   11.8340 C   0  0  0  0  0  0  0  0  0  0  0  0
  -10.9224  -17.0015   12.2105 N   0  0  0  0  0  0  0  0  0  0  0  0
  -11.7980  -18.1092   12.1022 O   0  0  0  0  0  0  0  0  0  0  0  0
  -11.0415  -19.2078   11.6255 N   0  0  0  0  0  0  0  0  0  0  0  0
   -9.8141  -18.8050   11.4538 C   0  0  0  0  0  0  0  0  0  0  0  0
   -8.7546  -19.5862   10.9950 N   0  0  0  0  0  0  0  0  0  0  0  0
   -7.8797  -19.0795   10.1041 C   0  0  0  0  0  0  0  0  0  0  0  0
   -8.0144  -17.9431    9.7017 O   0  0  0  0  0  0  0  0  0  0  0  0
   -6.7338  -19.9236    9.6079 C   0  0  0  0  0  0  0  0  0  0  0  0
  1  2  1  0
  1 11  1  0
  2  3  2  0
  2  4  1  0
  4  5  2  0
  4  8  1  0
  5  6  1  0
  5 10  1  0
  6  7  1  0
  7  8  2  0
  8  9  1  0
 11 12  2  0
 11 15  1  0
 12 13  1  0
 13 14  1  0
 14 15  2  0
 15 16  1  0
 16 17  1  0
 17 18  2  0
 17 19  1  0
M  END
>  <Gold.Gold.Protein.RotatedWaterAtoms>  (216) 


>  <Gold.Id.Protein>  (216) 


>  <Gold.PLP.Chemscore.CHOScore>  (216) 
0.0000

>  <Gold.PLP.Chemscore.Hbond>  (216) 
0.9280

>  <Gold.PLP.Chemscore.Internal.Correction>  (216) 
0.0007

>  <Gold.PLP.Chemscore.Metal>  (216) 
0.0000

>  <Gold.PLP.Fitness>  (216) 
40.0182

>  <Gold.PLP.PLP>  (216) 
-38.4444

>  <Gold.PLP.ligand.clash>  (216) 
0.0000

>  <Gold.PLP.ligand.torsion>  (216) 
0.6055

>  <Gold.PLP.part.buried>  (216) 
-8.3268

>  <Gold.PLP.part.hbond>  (216) 
-4.3305

>  <Gold.PLP.part.metal>  (216) 
0.0000

>  <Gold.PLP.part.nonpolar>  (216) 
-26.2221

>  <Gold.PLP.part.repulsive>  (216) 
0.7361

>  <Gold.Protein.RotatedAtoms>  (216) 


>  <Gold.Protein.RotatedTorsions>  (216) 


>  <Gold.Protein.RotatedWaterAtoms>  (216) 


>  <Gold.Version>  (216) 
5.3.0

>  <PLP.Chemscore.CHOScore>  (216) 


>  <PLP.Chemscore.Hbond>  (216) 


>  <PLP.Chemscore.Internal.Correction>  (216) 


>  <PLP.Chemscore.Metal>  (216) 


>  <PLP.Fitness>  (216) 


>  <PLP.PLP>  (216) 


>  <PLP.ligand.clash>  (216) 


>  <PLP.ligand.torsion>  (216) 


>  <PLP.part.buried>  (216) 


>  <PLP.part.hbond>  (216) 


>  <PLP.part.metal>  (216) 


>  <PLP.part.nonpolar>  (216) 


>  <PLP.part.repulsive>  (216) 


>  <Version>  (216) 


$$$$
3216|Compound_1966|Compounds_3D_F|sdf|573|dock5|1
     RDKit          3D

 19 20  0  0  0  0  0  0  0  0999 V2000
   -8.5687  -16.9326   11.9779 N   0  0  0  0  0  0  0  0  0  0  0  0
   -8.6167  -15.5878   11.8987 C   0  0  0  0  0  0  0  0  0  0  0  0
   -9.6694  -15.0305   11.6534 O   0  0  0  0  0  0  0  0  0  0  0  0
   -7.3929  -14.7937   12.1096 C   0  0  0  0  0  0  0  0  0  0  0  0
   -7.2441  -13.4283   12.0874 C   0  0  0  0  0  0  0  0  0  0  0  0
   -5.9532  -13.1878   12.3322 O   0  0  0  0  0  0  0  0  0  0  0  0
   -5.3070  -14.1925   12.4976 N   0  0  0  0  0  0  0  0  0  0  0  0
   -6.0316  -15.2676   12.4017 C   0  0  0  0  0  0  0  0  0  0  0  0
   -5.5726  -16.6959   12.5498 C   0  0  0  0  0  0  0  0  0  0  0  0
   -8.3208  -12.4054   11.8348 C   0  0  0  0  0  0  0  0  0  0  0  0
   -9.7240  -17.6840   11.7737 C   0  0  0  0  0  0  0  0  0  0  0  0
  -10.9229  -17.3686   12.1807 N   0  0  0  0  0  0  0  0  0  0  0  0
  -11.8066  -18.3954   11.7678 O   0  0  0  0  0  0  0  0  0  0  0  0
  -11.0420  -19.3640   11.0723 N   0  0  0  0  0  0  0  0  0  0  0  0
   -9.8026  -18.9617   11.0579 C   0  0  0  0  0  0  0  0  0  0  0  0
   -8.7322  -19.6342   10.4702 N   0  0  0  0  0  0  0  0  0  0  0  0
   -8.8442  -20.9415   10.1631 C   0  0  0  0  0  0  0  0  0  0  0  0
   -9.8770  -21.5329   10.3983 O   0  0  0  0  0  0  0  0  0  0  0  0
   -7.6875  -21.6691    9.5274 C   0  0  0  0  0  0  0  0  0  0  0  0
  1  2  1  0
  1 11  1  0
  2  3  2  0
  2  4  1  0
  4  5  2  0
  4  8  1  0
  5  6  1  0
  5 10  1  0
  6  7  1  0
  7  8  2  0
  8  9  1  0
 11 12  2  0
 11 15  1  0
 12 13  1  0
 13 14  1  0
 14 15  2  0
 15 16  1  0
 16 17  1  0
 17 18  2  0
 17 19  1  0
M  END
>  <Gold.Gold.Protein.RotatedWaterAtoms>  (217) 


>  <Gold.Id.Protein>  (217) 


>  <Gold.PLP.Chemscore.CHOScore>  (217) 
0.0000

>  <Gold.PLP.Chemscore.Hbond>  (217) 
1.3437

>  <Gold.PLP.Chemscore.Internal.Correction>  (217) 
0.0007

>  <Gold.PLP.Chemscore.Metal>  (217) 
0.0000

>  <Gold.PLP.Fitness>  (217) 
39.9686

>  <Gold.PLP.PLP>  (217) 
-36.6678

>  <Gold.PLP.ligand.clash>  (217) 
0.0000

>  <Gold.PLP.ligand.torsion>  (217) 
0.3655

>  <Gold.PLP.part.buried>  (217) 
-9.7067

>  <Gold.PLP.part.hbond>  (217) 
-2.1001

>  <Gold.PLP.part.metal>  (217) 
0.0000

>  <Gold.PLP.part.nonpolar>  (217) 
-25.8930

>  <Gold.PLP.part.repulsive>  (217) 
0.7309

>  <Gold.Protein.RotatedAtoms>  (217) 


>  <Gold.Protein.RotatedTorsions>  (217) 


>  <Gold.Protein.RotatedWaterAtoms>  (217) 


>  <Gold.Version>  (217) 
5.3.0

>  <PLP.Chemscore.CHOScore>  (217) 


>  <PLP.Chemscore.Hbond>  (217) 


>  <PLP.Chemscore.Internal.Correction>  (217) 


>  <PLP.Chemscore.Metal>  (217) 


>  <PLP.Fitness>  (217) 


>  <PLP.PLP>  (217) 


>  <PLP.ligand.clash>  (217) 


>  <PLP.ligand.torsion>  (217) 


>  <PLP.part.buried>  (217) 


>  <PLP.part.hbond>  (217) 


>  <PLP.part.metal>  (217) 


>  <PLP.part.nonpolar>  (217) 


>  <PLP.part.repulsive>  (217) 


>  <Version>  (217) 


$$$$
3217|Compound_1966|Compounds_3D_F|sdf|573|dock6|1
     RDKit          3D

 19 20  0  0  0  0  0  0  0  0999 V2000
   -8.0456  -16.7027   11.5257 N   0  0  0  0  0  0  0  0  0  0  0  0
   -8.2485  -15.3729   11.4392 C   0  0  0  0  0  0  0  0  0  0  0  0
   -9.2942  -14.9456   10.9888 O   0  0  0  0  0  0  0  0  0  0  0  0
   -7.2026  -14.4376   11.8907 C   0  0  0  0  0  0  0  0  0  0  0  0
   -7.2581  -13.0677   11.9761 C   0  0  0  0  0  0  0  0  0  0  0  0
   -6.0688  -12.6722   12.4379 O   0  0  0  0  0  0  0  0  0  0  0  0
   -5.3114  -13.5882   12.6425 N   0  0  0  0  0  0  0  0  0  0  0  0
   -5.8445  -14.7413   12.3668 C   0  0  0  0  0  0  0  0  0  0  0  0
   -5.2042  -16.0997   12.4986 C   0  0  0  0  0  0  0  0  0  0  0  0
   -8.4260  -12.1861   11.6180 C   0  0  0  0  0  0  0  0  0  0  0  0
   -9.0317  -17.5873   11.0944 C   0  0  0  0  0  0  0  0  0  0  0  0
  -10.2961  -17.5369   11.4126 N   0  0  0  0  0  0  0  0  0  0  0  0
  -10.9508  -18.6130   10.7654 O   0  0  0  0  0  0  0  0  0  0  0  0
   -9.9754  -19.3235   10.0236 N   0  0  0  0  0  0  0  0  0  0  0  0
   -8.8282  -18.7307   10.1988 C   0  0  0  0  0  0  0  0  0  0  0  0
   -7.6130  -19.1209    9.6378 N   0  0  0  0  0  0  0  0  0  0  0  0
   -7.5479  -19.4510    8.3330 C   0  0  0  0  0  0  0  0  0  0  0  0
   -8.5472  -19.4083    7.6466 O   0  0  0  0  0  0  0  0  0  0  0  0
   -6.2344  -19.8726    7.7259 C   0  0  0  0  0  0  0  0  0  0  0  0
  1  2  1  0
  1 11  1  0
  2  3  2  0
  2  4  1  0
  4  5  2  0
  4  8  1  0
  5  6  1  0
  5 10  1  0
  6  7  1  0
  7  8  2  0
  8  9  1  0
 11 12  2  0
 11 15  1  0
 12 13  1  0
 13 14  1  0
 14 15  2  0
 15 16  1  0
 16 17  1  0
 17 18  2  0
 17 19  1  0
M  END
>  <Gold.Gold.Protein.RotatedWaterAtoms>  (218) 


>  <Gold.Id.Protein>  (218) 


>  <Gold.PLP.Chemscore.CHOScore>  (218) 
0.0000

>  <Gold.PLP.Chemscore.Hbond>  (218) 
1.8640

>  <Gold.PLP.Chemscore.Internal.Correction>  (218) 
0.0007

>  <Gold.PLP.Chemscore.Metal>  (218) 
0.0000

>  <Gold.PLP.Fitness>  (218) 
39.4271

>  <Gold.PLP.PLP>  (218) 
-35.4730

>  <Gold.PLP.ligand.clash>  (218) 
0.0000

>  <Gold.PLP.ligand.torsion>  (218) 
0.8193

>  <Gold.PLP.part.buried>  (218) 
-9.9611

>  <Gold.PLP.part.hbond>  (218) 
-2.9478

>  <Gold.PLP.part.metal>  (218) 
0.0000

>  <Gold.PLP.part.nonpolar>  (218) 
-23.3120

>  <Gold.PLP.part.repulsive>  (218) 
0.7191

>  <Gold.Protein.RotatedAtoms>  (218) 


>  <Gold.Protein.RotatedTorsions>  (218) 


>  <Gold.Protein.RotatedWaterAtoms>  (218) 


>  <Gold.Version>  (218) 
5.3.0

>  <PLP.Chemscore.CHOScore>  (218) 


>  <PLP.Chemscore.Hbond>  (218) 


>  <PLP.Chemscore.Internal.Correction>  (218) 


>  <PLP.Chemscore.Metal>  (218) 


>  <PLP.Fitness>  (218) 


>  <PLP.PLP>  (218) 


>  <PLP.ligand.clash>  (218) 


>  <PLP.ligand.torsion>  (218) 


>  <PLP.part.buried>  (218) 


>  <PLP.part.hbond>  (218) 


>  <PLP.part.metal>  (218) 


>  <PLP.part.nonpolar>  (218) 


>  <PLP.part.repulsive>  (218) 


>  <Version>  (218) 


$$$$
3218|Compound_1966|Compounds_3D_F|sdf|573|dock7|1
     RDKit          3D

 19 20  0  0  0  0  0  0  0  0999 V2000
   -7.9439  -16.5973   11.1360 N   0  0  0  0  0  0  0  0  0  0  0  0
   -8.2537  -15.3660   11.5887 C   0  0  0  0  0  0  0  0  0  0  0  0
   -9.4182  -15.0273   11.6803 O   0  0  0  0  0  0  0  0  0  0  0  0
   -7.1808  -14.4311   11.9724 C   0  0  0  0  0  0  0  0  0  0  0  0
   -7.2210  -13.0592   12.0303 C   0  0  0  0  0  0  0  0  0  0  0  0
   -6.0089  -12.6651   12.4296 O   0  0  0  0  0  0  0  0  0  0  0  0
   -5.2507  -13.5834   12.6201 N   0  0  0  0  0  0  0  0  0  0  0  0
   -5.8053  -14.7372   12.3937 C   0  0  0  0  0  0  0  0  0  0  0  0
   -5.1711  -16.0984   12.5262 C   0  0  0  0  0  0  0  0  0  0  0  0
   -8.3964  -12.1746   11.7058 C   0  0  0  0  0  0  0  0  0  0  0  0
   -8.9575  -17.4798   10.7683 C   0  0  0  0  0  0  0  0  0  0  0  0
  -10.2173  -17.3741   11.0910 N   0  0  0  0  0  0  0  0  0  0  0  0
  -10.9065  -18.4705   10.5179 O   0  0  0  0  0  0  0  0  0  0  0  0
   -9.9571  -19.2534    9.8164 N   0  0  0  0  0  0  0  0  0  0  0  0
   -8.7927  -18.6829    9.9460 C   0  0  0  0  0  0  0  0  0  0  0  0
   -7.5934  -19.1415    9.4031 N   0  0  0  0  0  0  0  0  0  0  0  0
   -7.5252  -19.4661    8.0970 C   0  0  0  0  0  0  0  0  0  0  0  0
   -8.5078  -19.3589    7.3938 O   0  0  0  0  0  0  0  0  0  0  0  0
   -6.2287  -19.9617    7.5093 C   0  0  0  0  0  0  0  0  0  0  0  0
  1  2  1  0
  1 11  1  0
  2  3  2  0
  2  4  1  0
  4  5  2  0
  4  8  1  0
  5  6  1  0
  5 10  1  0
  6  7  1  0
  7  8  2  0
  8  9  1  0
 11 12  2  0
 11 15  1  0
 12 13  1  0
 13 14  1  0
 14 15  2  0
 15 16  1  0
 16 17  1  0
 17 18  2  0
 17 19  1  0
M  END
>  <Gold.Gold.Protein.RotatedWaterAtoms>  (219) 


>  <Gold.Id.Protein>  (219) 


>  <Gold.PLP.Chemscore.CHOScore>  (219) 
0.0000

>  <Gold.PLP.Chemscore.Hbond>  (219) 
1.9920

>  <Gold.PLP.Chemscore.Internal.Correction>  (219) 
0.0007

>  <Gold.PLP.Chemscore.Metal>  (219) 
0.0000

>  <Gold.PLP.Fitness>  (219) 
39.0333

>  <Gold.PLP.PLP>  (219) 
-34.5410

>  <Gold.PLP.ligand.clash>  (219) 
0.0000

>  <Gold.PLP.ligand.torsion>  (219) 
0.7422

>  <Gold.PLP.part.buried>  (219) 
-9.6916

>  <Gold.PLP.part.hbond>  (219) 
-2.9424

>  <Gold.PLP.part.metal>  (219) 
0.0000

>  <Gold.PLP.part.nonpolar>  (219) 
-22.8467

>  <Gold.PLP.part.repulsive>  (219) 
0.7151

>  <Gold.Protein.RotatedAtoms>  (219) 


>  <Gold.Protein.RotatedTorsions>  (219) 


>  <Gold.Protein.RotatedWaterAtoms>  (219) 


>  <Gold.Version>  (219) 
5.3.0

>  <PLP.Chemscore.CHOScore>  (219) 


>  <PLP.Chemscore.Hbond>  (219) 


>  <PLP.Chemscore.Internal.Correction>  (219) 


>  <PLP.Chemscore.Metal>  (219) 


>  <PLP.Fitness>  (219) 


>  <PLP.PLP>  (219) 


>  <PLP.ligand.clash>  (219) 


>  <PLP.ligand.torsion>  (219) 


>  <PLP.part.buried>  (219) 


>  <PLP.part.hbond>  (219) 


>  <PLP.part.metal>  (219) 


>  <PLP.part.nonpolar>  (219) 


>  <PLP.part.repulsive>  (219) 


>  <Version>  (219) 


$$$$
3219|Compound_1966|Compounds_3D_F|sdf|573|dock8|1
     RDKit          3D

 19 20  0  0  0  0  0  0  0  0999 V2000
   -8.6183  -17.4245   11.6509 N   0  0  0  0  0  0  0  0  0  0  0  0
   -8.7804  -16.1132   11.9180 C   0  0  0  0  0  0  0  0  0  0  0  0
   -9.8875  -15.6760   12.1677 O   0  0  0  0  0  0  0  0  0  0  0  0
   -7.6156  -15.2101   11.9073 C   0  0  0  0  0  0  0  0  0  0  0  0
   -6.2853  -15.5274   12.0367 C   0  0  0  0  0  0  0  0  0  0  0  0
   -5.6159  -14.3738   11.9641 O   0  0  0  0  0  0  0  0  0  0  0  0
   -6.3347  -13.4175   11.8114 N   0  0  0  0  0  0  0  0  0  0  0  0
   -7.5905  -13.7481   11.7492 C   0  0  0  0  0  0  0  0  0  0  0  0
   -8.7701  -12.8280   11.5635 C   0  0  0  0  0  0  0  0  0  0  0  0
   -5.6978  -16.9016   12.2256 C   0  0  0  0  0  0  0  0  0  0  0  0
   -9.7198  -18.2777   11.6558 C   0  0  0  0  0  0  0  0  0  0  0  0
  -10.8798  -18.0252   12.1972 N   0  0  0  0  0  0  0  0  0  0  0  0
  -11.7153  -19.1475   11.9785 O   0  0  0  0  0  0  0  0  0  0  0  0
  -10.9639  -20.1061   11.2553 N   0  0  0  0  0  0  0  0  0  0  0  0
   -9.7766  -19.6107   11.0471 C   0  0  0  0  0  0  0  0  0  0  0  0
   -8.7353  -20.2426   10.3689 N   0  0  0  0  0  0  0  0  0  0  0  0
   -8.6829  -21.5881   10.3173 C   0  0  0  0  0  0  0  0  0  0  0  0
   -9.5423  -22.2493   10.8611 O   0  0  0  0  0  0  0  0  0  0  0  0
   -7.5575  -22.2718    9.5840 C   0  0  0  0  0  0  0  0  0  0  0  0
  1  2  1  0
  1 11  1  0
  2  3  2  0
  2  4  1  0
  4  5  2  0
  4  8  1  0
  5  6  1  0
  5 10  1  0
  6  7  1  0
  7  8  2  0
  8  9  1  0
 11 12  2  0
 11 15  1  0
 12 13  1  0
 13 14  1  0
 14 15  2  0
 15 16  1  0
 16 17  1  0
 17 18  2  0
 17 19  1  0
M  END
>  <Gold.Gold.Protein.RotatedWaterAtoms>  (220) 


>  <Gold.Id.Protein>  (220) 


>  <Gold.PLP.Chemscore.CHOScore>  (220) 
0.0000

>  <Gold.PLP.Chemscore.Hbond>  (220) 
1.4804

>  <Gold.PLP.Chemscore.Internal.Correction>  (220) 
0.0007

>  <Gold.PLP.Chemscore.Metal>  (220) 
0.0000

>  <Gold.PLP.Fitness>  (220) 
38.4796

>  <Gold.PLP.PLP>  (220) 
-34.8488

>  <Gold.PLP.ligand.clash>  (220) 
0.0000

>  <Gold.PLP.ligand.torsion>  (220) 
0.4056

>  <Gold.PLP.part.buried>  (220) 
-9.3606

>  <Gold.PLP.part.hbond>  (220) 
-1.8489

>  <Gold.PLP.part.metal>  (220) 
0.0000

>  <Gold.PLP.part.nonpolar>  (220) 
-24.3325

>  <Gold.PLP.part.repulsive>  (220) 
0.5552

>  <Gold.Protein.RotatedAtoms>  (220) 


>  <Gold.Protein.RotatedTorsions>  (220) 


>  <Gold.Protein.RotatedWaterAtoms>  (220) 


>  <Gold.Version>  (220) 
5.3.0

>  <PLP.Chemscore.CHOScore>  (220) 


>  <PLP.Chemscore.Hbond>  (220) 


>  <PLP.Chemscore.Internal.Correction>  (220) 


>  <PLP.Chemscore.Metal>  (220) 


>  <PLP.Fitness>  (220) 


>  <PLP.PLP>  (220) 


>  <PLP.ligand.clash>  (220) 


>  <PLP.ligand.torsion>  (220) 


>  <PLP.part.buried>  (220) 


>  <PLP.part.hbond>  (220) 


>  <PLP.part.metal>  (220) 


>  <PLP.part.nonpolar>  (220) 


>  <PLP.part.repulsive>  (220) 


>  <Version>  (220) 


$$$$
3220|Compound_1966|Compounds_3D_F|sdf|573|dock9|1
     RDKit          3D

 19 20  0  0  0  0  0  0  0  0999 V2000
   -7.6315  -15.0482   10.4946 N   0  0  0  0  0  0  0  0  0  0  0  0
   -8.0281  -14.0096   11.2570 C   0  0  0  0  0  0  0  0  0  0  0  0
   -9.2127  -13.8189   11.4556 O   0  0  0  0  0  0  0  0  0  0  0  0
   -7.0256  -13.1061   11.8495 C   0  0  0  0  0  0  0  0  0  0  0  0
   -5.8018  -13.4208   12.3883 C   0  0  0  0  0  0  0  0  0  0  0  0
   -5.2629  -12.2679   12.7938 O   0  0  0  0  0  0  0  0  0  0  0  0
   -5.9700  -11.3140   12.5825 N   0  0  0  0  0  0  0  0  0  0  0  0
   -7.0862  -11.6447   12.0039 C   0  0  0  0  0  0  0  0  0  0  0  0
   -8.2074  -10.7269   11.5879 C   0  0  0  0  0  0  0  0  0  0  0  0
   -5.1898  -14.7926   12.5020 C   0  0  0  0  0  0  0  0  0  0  0  0
   -8.5789  -15.8997    9.9301 C   0  0  0  0  0  0  0  0  0  0  0  0
   -9.8397  -15.9659   10.2594 N   0  0  0  0  0  0  0  0  0  0  0  0
  -10.4496  -16.9541    9.4488 O   0  0  0  0  0  0  0  0  0  0  0  0
   -9.4507  -17.4840    8.5955 N   0  0  0  0  0  0  0  0  0  0  0  0
   -8.3317  -16.8702    8.8588 C   0  0  0  0  0  0  0  0  0  0  0  0
   -7.1067  -17.1017    8.2349 N   0  0  0  0  0  0  0  0  0  0  0  0
   -7.0323  -17.9472    7.1882 C   0  0  0  0  0  0  0  0  0  0  0  0
   -8.0319  -18.5066    6.7890 O   0  0  0  0  0  0  0  0  0  0  0  0
   -5.7082  -18.1977    6.5131 C   0  0  0  0  0  0  0  0  0  0  0  0
  1  2  1  0
  1 11  1  0
  2  3  2  0
  2  4  1  0
  4  5  2  0
  4  8  1  0
  5  6  1  0
  5 10  1  0
  6  7  1  0
  7  8  2  0
  8  9  1  0
 11 12  2  0
 11 15  1  0
 12 13  1  0
 13 14  1  0
 14 15  2  0
 15 16  1  0
 16 17  1  0
 17 18  2  0
 17 19  1  0
M  END
>  <Gold.Gold.Protein.RotatedWaterAtoms>  (221) 


>  <Gold.Id.Protein>  (221) 


>  <Gold.PLP.Chemscore.CHOScore>  (221) 
0.0000

>  <Gold.PLP.Chemscore.Hbond>  (221) 
1.4969

>  <Gold.PLP.Chemscore.Internal.Correction>  (221) 
0.0007

>  <Gold.PLP.Chemscore.Metal>  (221) 
0.0000

>  <Gold.PLP.Fitness>  (221) 
41.3048

>  <Gold.PLP.PLP>  (221) 
-38.1044

>  <Gold.PLP.ligand.clash>  (221) 
0.0000

>  <Gold.PLP.ligand.torsion>  (221) 
0.6454

>  <Gold.PLP.part.buried>  (221) 
-9.0802

>  <Gold.PLP.part.hbond>  (221) 
-3.6587

>  <Gold.PLP.part.metal>  (221) 
0.0000

>  <Gold.PLP.part.nonpolar>  (221) 
-27.5467

>  <Gold.PLP.part.repulsive>  (221) 
1.1312

>  <Gold.Protein.RotatedAtoms>  (221) 


>  <Gold.Protein.RotatedTorsions>  (221) 


>  <Gold.Protein.RotatedWaterAtoms>  (221) 


>  <Gold.Version>  (221) 
5.3.0

>  <PLP.Chemscore.CHOScore>  (221) 


>  <PLP.Chemscore.Hbond>  (221) 


>  <PLP.Chemscore.Internal.Correction>  (221) 


>  <PLP.Chemscore.Metal>  (221) 


>  <PLP.Fitness>  (221) 


>  <PLP.PLP>  (221) 


>  <PLP.ligand.clash>  (221) 


>  <PLP.ligand.torsion>  (221) 


>  <PLP.part.buried>  (221) 


>  <PLP.part.hbond>  (221) 


>  <PLP.part.metal>  (221) 


>  <PLP.part.nonpolar>  (221) 


>  <PLP.part.repulsive>  (221) 


>  <Version>  (221) 


$$$$
3221|Compound_1967|Compounds_3D_F|sdf|574|dock1|1
     RDKit          3D

 20 22  0  0  0  0  0  0  0  0999 V2000
  -13.1636  -19.0760   12.6164 O   0  0  0  0  0  0  0  0  0  0  0  0
  -12.0484  -18.8035   11.8994 C   0  0  0  0  0  0  0  0  0  0  0  0
  -11.6901  -19.6037   10.7968 C   0  0  0  0  0  0  0  0  0  0  0  0
  -12.2311  -20.6871   10.2123 N   0  0  0  0  0  0  0  0  0  0  0  0
  -11.5091  -21.0567    9.2123 N   0  0  0  0  0  0  0  0  0  0  0  0
  -10.4101  -20.1935    9.0867 N   0  0  0  0  0  0  0  0  0  0  0  0
  -10.5207  -19.2711   10.0897 C   0  0  0  0  0  0  0  0  0  0  0  0
   -9.8012  -18.2244   10.4806 N   0  0  0  0  0  0  0  0  0  0  0  0
  -10.1771  -17.5014   11.5221 C   0  0  0  0  0  0  0  0  0  0  0  0
  -11.2742  -17.7754   12.2153 N   0  0  0  0  0  0  0  0  0  0  0  0
   -9.3985  -16.4155   11.9002 N   0  0  0  0  0  0  0  0  0  0  0  0
   -8.0574  -16.4759   11.7846 C   0  0  0  0  0  0  0  0  0  0  0  0
   -7.5292  -17.4809   11.3481 O   0  0  0  0  0  0  0  0  0  0  0  0
   -7.2305  -15.3235   12.1854 C   0  0  0  0  0  0  0  0  0  0  0  0
   -5.8924  -15.2959   12.4952 C   0  0  0  0  0  0  0  0  0  0  0  0
   -5.6028  -14.0276   12.7944 O   0  0  0  0  0  0  0  0  0  0  0  0
   -6.5547  -13.2915   12.7124 N   0  0  0  0  0  0  0  0  0  0  0  0
   -7.6332  -13.9178   12.3456 C   0  0  0  0  0  0  0  0  0  0  0  0
   -9.0063  -13.3309   12.1386 C   0  0  0  0  0  0  0  0  0  0  0  0
   -4.9416  -16.4645   12.4979 C   0  0  0  0  0  0  0  0  0  0  0  0
  1  2  1  0
  2  3  2  0
  2 10  1  0
  3  4  1  0
  3  7  1  0
  4  5  2  0
  5  6  1  0
  6  7  1  0
  7  8  2  0
  8  9  1  0
  9 10  2  0
  9 11  1  0
 11 12  1  0
 12 13  2  0
 12 14  1  0
 14 15  2  0
 14 18  1  0
 15 16  1  0
 15 20  1  0
 16 17  1  0
 17 18  2  0
 18 19  1  0
M  END
>  <Gold.Gold.Protein.RotatedWaterAtoms>  (222) 


>  <Gold.Id.Protein>  (222) 


>  <Gold.PLP.Chemscore.CHOScore>  (222) 
0.0000

>  <Gold.PLP.Chemscore.Hbond>  (222) 
1.0000

>  <Gold.PLP.Chemscore.Internal.Correction>  (222) 
0.4085

>  <Gold.PLP.Chemscore.Metal>  (222) 
0.0000

>  <Gold.PLP.Fitness>  (222) 
40.3156

>  <Gold.PLP.PLP>  (222) 
-37.7638

>  <Gold.PLP.ligand.clash>  (222) 
0.0000

>  <Gold.PLP.ligand.torsion>  (222) 
0.4283

>  <Gold.PLP.part.buried>  (222) 
-8.0789

>  <Gold.PLP.part.hbond>  (222) 
-3.2935

>  <Gold.PLP.part.metal>  (222) 
0.0000

>  <Gold.PLP.part.nonpolar>  (222) 
-26.6302

>  <Gold.PLP.part.repulsive>  (222) 
0.6960

>  <Gold.Protein.RotatedAtoms>  (222) 


>  <Gold.Protein.RotatedTorsions>  (222) 


>  <Gold.Protein.RotatedWaterAtoms>  (222) 


>  <Gold.Version>  (222) 
5.3.0

>  <PLP.Chemscore.CHOScore>  (222) 


>  <PLP.Chemscore.Hbond>  (222) 


>  <PLP.Chemscore.Internal.Correction>  (222) 


>  <PLP.Chemscore.Metal>  (222) 


>  <PLP.Fitness>  (222) 


>  <PLP.PLP>  (222) 


>  <PLP.ligand.clash>  (222) 


>  <PLP.ligand.torsion>  (222) 


>  <PLP.part.buried>  (222) 


>  <PLP.part.hbond>  (222) 


>  <PLP.part.metal>  (222) 


>  <PLP.part.nonpolar>  (222) 


>  <PLP.part.repulsive>  (222) 


>  <Version>  (222) 


$$$$
3222|Compound_1967|Compounds_3D_F|sdf|574|dock2|1
     RDKit          3D

 20 22  0  0  0  0  0  0  0  0999 V2000
  -12.1114  -17.9174   12.4021 O   0  0  0  0  0  0  0  0  0  0  0  0
  -10.9577  -17.9927   11.6983 C   0  0  0  0  0  0  0  0  0  0  0  0
  -10.7660  -19.0069   10.7396 C   0  0  0  0  0  0  0  0  0  0  0  0
  -11.5176  -20.0309   10.2984 N   0  0  0  0  0  0  0  0  0  0  0  0
  -10.8806  -20.6884    9.3928 N   0  0  0  0  0  0  0  0  0  0  0  0
   -9.6238  -20.0999    9.1867 N   0  0  0  0  0  0  0  0  0  0  0  0
   -9.5468  -19.0336   10.0389 C   0  0  0  0  0  0  0  0  0  0  0  0
   -8.6268  -18.1113   10.3014 N   0  0  0  0  0  0  0  0  0  0  0  0
   -8.8513  -17.1773   11.2102 C   0  0  0  0  0  0  0  0  0  0  0  0
   -9.9874  -17.1108   11.8914 N   0  0  0  0  0  0  0  0  0  0  0  0
   -7.8652  -16.2310   11.4566 N   0  0  0  0  0  0  0  0  0  0  0  0
   -8.2056  -14.9469   11.6814 C   0  0  0  0  0  0  0  0  0  0  0  0
   -9.3764  -14.6170   11.6697 O   0  0  0  0  0  0  0  0  0  0  0  0
   -7.1596  -13.9422   11.9433 C   0  0  0  0  0  0  0  0  0  0  0  0
   -7.2612  -12.5724   11.9148 C   0  0  0  0  0  0  0  0  0  0  0  0
   -6.0505  -12.1001   12.2199 O   0  0  0  0  0  0  0  0  0  0  0  0
   -5.2405  -12.9693   12.4271 N   0  0  0  0  0  0  0  0  0  0  0  0
   -5.7507  -14.1589   12.3064 C   0  0  0  0  0  0  0  0  0  0  0  0
   -5.0465  -15.4793   12.4893 C   0  0  0  0  0  0  0  0  0  0  0  0
   -8.4933  -11.7644   11.6007 C   0  0  0  0  0  0  0  0  0  0  0  0
  1  2  1  0
  2  3  2  0
  2 10  1  0
  3  4  1  0
  3  7  1  0
  4  5  2  0
  5  6  1  0
  6  7  1  0
  7  8  2  0
  8  9  1  0
  9 10  2  0
  9 11  1  0
 11 12  1  0
 12 13  2  0
 12 14  1  0
 14 15  2  0
 14 18  1  0
 15 16  1  0
 15 20  1  0
 16 17  1  0
 17 18  2  0
 18 19  1  0
M  END
>  <Gold.Gold.Protein.RotatedWaterAtoms>  (223) 


>  <Gold.Id.Protein>  (223) 


>  <Gold.PLP.Chemscore.CHOScore>  (223) 
0.0000

>  <Gold.PLP.Chemscore.Hbond>  (223) 
1.5920

>  <Gold.PLP.Chemscore.Internal.Correction>  (223) 
0.4085

>  <Gold.PLP.Chemscore.Metal>  (223) 
0.0000

>  <Gold.PLP.Fitness>  (223) 
43.2020

>  <Gold.PLP.PLP>  (223) 
-38.8181

>  <Gold.PLP.ligand.clash>  (223) 
0.0000

>  <Gold.PLP.ligand.torsion>  (223) 
0.4003

>  <Gold.PLP.part.buried>  (223) 
-9.2483

>  <Gold.PLP.part.hbond>  (223) 
-3.8140

>  <Gold.PLP.part.metal>  (223) 
0.0000

>  <Gold.PLP.part.nonpolar>  (223) 
-26.6639

>  <Gold.PLP.part.repulsive>  (223) 
0.9154

>  <Gold.Protein.RotatedAtoms>  (223) 


>  <Gold.Protein.RotatedTorsions>  (223) 


>  <Gold.Protein.RotatedWaterAtoms>  (223) 


>  <Gold.Version>  (223) 
5.3.0

>  <PLP.Chemscore.CHOScore>  (223) 


>  <PLP.Chemscore.Hbond>  (223) 


>  <PLP.Chemscore.Internal.Correction>  (223) 


>  <PLP.Chemscore.Metal>  (223) 


>  <PLP.Fitness>  (223) 


>  <PLP.PLP>  (223) 


>  <PLP.ligand.clash>  (223) 


>  <PLP.ligand.torsion>  (223) 


>  <PLP.part.buried>  (223) 


>  <PLP.part.hbond>  (223) 


>  <PLP.part.metal>  (223) 


>  <PLP.part.nonpolar>  (223) 


>  <PLP.part.repulsive>  (223) 


>  <Version>  (223) 


$$$$
3223|Compound_1967|Compounds_3D_F|sdf|574|dock3|1
     RDKit          3D

 20 22  0  0  0  0  0  0  0  0999 V2000
  -11.9298  -17.5991   12.5016 O   0  0  0  0  0  0  0  0  0  0  0  0
  -10.7799  -17.6533   11.7897 C   0  0  0  0  0  0  0  0  0  0  0  0
  -10.5612  -18.6851   10.8559 C   0  0  0  0  0  0  0  0  0  0  0  0
  -11.2805  -19.7454   10.4480 N   0  0  0  0  0  0  0  0  0  0  0  0
  -10.6286  -20.4041    9.5541 N   0  0  0  0  0  0  0  0  0  0  0  0
   -9.3945  -19.7786    9.3217 N   0  0  0  0  0  0  0  0  0  0  0  0
   -9.3474  -18.6884   10.1454 C   0  0  0  0  0  0  0  0  0  0  0  0
   -8.4576  -17.7286   10.3757 N   0  0  0  0  0  0  0  0  0  0  0  0
   -8.7069  -16.7794   11.2620 C   0  0  0  0  0  0  0  0  0  0  0  0
   -9.8391  -16.7340   11.9513 N   0  0  0  0  0  0  0  0  0  0  0  0
   -7.7520  -15.7938   11.4751 N   0  0  0  0  0  0  0  0  0  0  0  0
   -8.1361  -14.5400   11.7848 C   0  0  0  0  0  0  0  0  0  0  0  0
   -9.3189  -14.2720   11.8788 O   0  0  0  0  0  0  0  0  0  0  0  0
   -7.1231  -13.4937   12.0113 C   0  0  0  0  0  0  0  0  0  0  0  0
   -5.7990  -13.6415   12.3464 C   0  0  0  0  0  0  0  0  0  0  0  0
   -5.2959  -12.4087   12.4400 O   0  0  0  0  0  0  0  0  0  0  0  0
   -6.1081  -11.5463   12.2136 N   0  0  0  0  0  0  0  0  0  0  0  0
   -7.2790  -12.0334   11.9276 C   0  0  0  0  0  0  0  0  0  0  0  0
   -8.5322  -11.2656   11.5917 C   0  0  0  0  0  0  0  0  0  0  0  0
   -5.0620  -14.9371   12.5657 C   0  0  0  0  0  0  0  0  0  0  0  0
  1  2  1  0
  2  3  2  0
  2 10  1  0
  3  4  1  0
  3  7  1  0
  4  5  2  0
  5  6  1  0
  6  7  1  0
  7  8  2  0
  8  9  1  0
  9 10  2  0
  9 11  1  0
 11 12  1  0
 12 13  2  0
 12 14  1  0
 14 15  2  0
 14 18  1  0
 15 16  1  0
 15 20  1  0
 16 17  1  0
 17 18  2  0
 18 19  1  0
M  END
>  <Gold.Gold.Protein.RotatedWaterAtoms>  (224) 


>  <Gold.Id.Protein>  (224) 


>  <Gold.PLP.Chemscore.CHOScore>  (224) 
0.0000

>  <Gold.PLP.Chemscore.Hbond>  (224) 
1.0000

>  <Gold.PLP.Chemscore.Internal.Correction>  (224) 
0.4085

>  <Gold.PLP.Chemscore.Metal>  (224) 
0.0000

>  <Gold.PLP.Fitness>  (224) 
41.2729

>  <Gold.PLP.PLP>  (224) 
-38.7182

>  <Gold.PLP.ligand.clash>  (224) 
0.0000

>  <Gold.PLP.ligand.torsion>  (224) 
0.4269

>  <Gold.PLP.part.buried>  (224) 
-7.0998

>  <Gold.PLP.part.hbond>  (224) 
-4.0000

>  <Gold.PLP.part.metal>  (224) 
0.0000

>  <Gold.PLP.part.nonpolar>  (224) 
-28.0044

>  <Gold.PLP.part.repulsive>  (224) 
0.9684

>  <Gold.Protein.RotatedAtoms>  (224) 


>  <Gold.Protein.RotatedTorsions>  (224) 


>  <Gold.Protein.RotatedWaterAtoms>  (224) 


>  <Gold.Version>  (224) 
5.3.0

>  <PLP.Chemscore.CHOScore>  (224) 


>  <PLP.Chemscore.Hbond>  (224) 


>  <PLP.Chemscore.Internal.Correction>  (224) 


>  <PLP.Chemscore.Metal>  (224) 


>  <PLP.Fitness>  (224) 


>  <PLP.PLP>  (224) 


>  <PLP.ligand.clash>  (224) 


>  <PLP.ligand.torsion>  (224) 


>  <PLP.part.buried>  (224) 


>  <PLP.part.hbond>  (224) 


>  <PLP.part.metal>  (224) 


>  <PLP.part.nonpolar>  (224) 


>  <PLP.part.repulsive>  (224) 


>  <Version>  (224) 


$$$$
3224|Compound_1967|Compounds_3D_F|sdf|574|dock4|1
     RDKit          3D

 20 22  0  0  0  0  0  0  0  0999 V2000
  -11.5437  -17.4692   12.5020 O   0  0  0  0  0  0  0  0  0  0  0  0
  -10.3648  -17.4226   11.8388 C   0  0  0  0  0  0  0  0  0  0  0  0
   -9.9966  -18.4557   10.9548 C   0  0  0  0  0  0  0  0  0  0  0  0
  -10.5800  -19.6010   10.5599 N   0  0  0  0  0  0  0  0  0  0  0  0
   -9.8232  -20.2153    9.7185 N   0  0  0  0  0  0  0  0  0  0  0  0
   -8.6541  -19.4678    9.5112 N   0  0  0  0  0  0  0  0  0  0  0  0
   -8.7597  -18.3516   10.2935 C   0  0  0  0  0  0  0  0  0  0  0  0
   -7.9885  -17.2937   10.5216 N   0  0  0  0  0  0  0  0  0  0  0  0
   -8.3761  -16.3475   11.3602 C   0  0  0  0  0  0  0  0  0  0  0  0
   -9.5355  -16.4017   12.0020 N   0  0  0  0  0  0  0  0  0  0  0  0
   -7.5422  -15.2575   11.5727 N   0  0  0  0  0  0  0  0  0  0  0  0
   -8.0712  -14.0448   11.8276 C   0  0  0  0  0  0  0  0  0  0  0  0
   -9.2787  -13.9052   11.8726 O   0  0  0  0  0  0  0  0  0  0  0  0
   -7.1867  -12.8877   12.0536 C   0  0  0  0  0  0  0  0  0  0  0  0
   -5.8724  -12.8794   12.4535 C   0  0  0  0  0  0  0  0  0  0  0  0
   -5.5075  -11.5969   12.5159 O   0  0  0  0  0  0  0  0  0  0  0  0
   -6.3942  -10.8362   12.2163 N   0  0  0  0  0  0  0  0  0  0  0  0
   -7.4916  -11.4569   11.8997 C   0  0  0  0  0  0  0  0  0  0  0  0
   -8.8009  -10.8418   11.4753 C   0  0  0  0  0  0  0  0  0  0  0  0
   -5.0143  -14.0788   12.7615 C   0  0  0  0  0  0  0  0  0  0  0  0
  1  2  1  0
  2  3  2  0
  2 10  1  0
  3  4  1  0
  3  7  1  0
  4  5  2  0
  5  6  1  0
  6  7  1  0
  7  8  2  0
  8  9  1  0
  9 10  2  0
  9 11  1  0
 11 12  1  0
 12 13  2  0
 12 14  1  0
 14 15  2  0
 14 18  1  0
 15 16  1  0
 15 20  1  0
 16 17  1  0
 17 18  2  0
 18 19  1  0
M  END
>  <Gold.Gold.Protein.RotatedWaterAtoms>  (225) 


>  <Gold.Id.Protein>  (225) 


>  <Gold.PLP.Chemscore.CHOScore>  (225) 
0.0000

>  <Gold.PLP.Chemscore.Hbond>  (225) 
1.0000

>  <Gold.PLP.Chemscore.Internal.Correction>  (225) 
0.4085

>  <Gold.PLP.Chemscore.Metal>  (225) 
0.0000

>  <Gold.PLP.Fitness>  (225) 
40.5220

>  <Gold.PLP.PLP>  (225) 
-37.9880

>  <Gold.PLP.ligand.clash>  (225) 
0.0000

>  <Gold.PLP.ligand.torsion>  (225) 
0.4373

>  <Gold.PLP.part.buried>  (225) 
-5.0884

>  <Gold.PLP.part.hbond>  (225) 
-4.0000

>  <Gold.PLP.part.metal>  (225) 
0.0000

>  <Gold.PLP.part.nonpolar>  (225) 
-29.7077

>  <Gold.PLP.part.repulsive>  (225) 
0.9695

>  <Gold.Protein.RotatedAtoms>  (225) 


>  <Gold.Protein.RotatedTorsions>  (225) 


>  <Gold.Protein.RotatedWaterAtoms>  (225) 


>  <Gold.Version>  (225) 
5.3.0

>  <PLP.Chemscore.CHOScore>  (225) 


>  <PLP.Chemscore.Hbond>  (225) 


>  <PLP.Chemscore.Internal.Correction>  (225) 


>  <PLP.Chemscore.Metal>  (225) 


>  <PLP.Fitness>  (225) 


>  <PLP.PLP>  (225) 


>  <PLP.ligand.clash>  (225) 


>  <PLP.ligand.torsion>  (225) 


>  <PLP.part.buried>  (225) 


>  <PLP.part.hbond>  (225) 


>  <PLP.part.metal>  (225) 


>  <PLP.part.nonpolar>  (225) 


>  <PLP.part.repulsive>  (225) 


>  <Version>  (225) 


$$$$
3225|Compound_1967|Compounds_3D_F|sdf|574|dock5|1
     RDKit          3D

 20 22  0  0  0  0  0  0  0  0999 V2000
  -12.8068  -18.2742   12.5148 O   0  0  0  0  0  0  0  0  0  0  0  0
  -11.7212  -18.4281   11.7212 C   0  0  0  0  0  0  0  0  0  0  0  0
  -11.7222  -19.3754   10.6786 C   0  0  0  0  0  0  0  0  0  0  0  0
  -12.6235  -20.2626   10.2218 N   0  0  0  0  0  0  0  0  0  0  0  0
  -12.1356  -20.9144    9.2243 N   0  0  0  0  0  0  0  0  0  0  0  0
  -10.8316  -20.4649    8.9667 N   0  0  0  0  0  0  0  0  0  0  0  0
  -10.5654  -19.4894    9.8868 C   0  0  0  0  0  0  0  0  0  0  0  0
   -9.5219  -18.7082   10.1454 N   0  0  0  0  0  0  0  0  0  0  0  0
   -9.5668  -17.8323   11.1351 C   0  0  0  0  0  0  0  0  0  0  0  0
  -10.6377  -17.6872   11.9041 N   0  0  0  0  0  0  0  0  0  0  0  0
   -8.4561  -17.0339   11.3745 N   0  0  0  0  0  0  0  0  0  0  0  0
   -8.6150  -15.7879   11.8621 C   0  0  0  0  0  0  0  0  0  0  0  0
   -9.7311  -15.3632   12.0935 O   0  0  0  0  0  0  0  0  0  0  0  0
   -7.4365  -14.9403   12.1166 C   0  0  0  0  0  0  0  0  0  0  0  0
   -7.3542  -13.5690   12.1286 C   0  0  0  0  0  0  0  0  0  0  0  0
   -6.0828  -13.2720   12.4066 O   0  0  0  0  0  0  0  0  0  0  0  0
   -5.3911  -14.2474   12.5635 N   0  0  0  0  0  0  0  0  0  0  0  0
   -6.0596  -15.3540   12.4274 C   0  0  0  0  0  0  0  0  0  0  0  0
   -5.5339  -16.7616   12.5513 C   0  0  0  0  0  0  0  0  0  0  0  0
   -8.4753  -12.5946   11.8770 C   0  0  0  0  0  0  0  0  0  0  0  0
  1  2  1  0
  2  3  2  0
  2 10  1  0
  3  4  1  0
  3  7  1  0
  4  5  2  0
  5  6  1  0
  6  7  1  0
  7  8  2  0
  8  9  1  0
  9 10  2  0
  9 11  1  0
 11 12  1  0
 12 13  2  0
 12 14  1  0
 14 15  2  0
 14 18  1  0
 15 16  1  0
 15 20  1  0
 16 17  1  0
 17 18  2  0
 18 19  1  0
M  END
>  <Gold.Gold.Protein.RotatedWaterAtoms>  (226) 


>  <Gold.Id.Protein>  (226) 


>  <Gold.PLP.Chemscore.CHOScore>  (226) 
0.0000

>  <Gold.PLP.Chemscore.Hbond>  (226) 
1.0709

>  <Gold.PLP.Chemscore.Internal.Correction>  (226) 
0.4085

>  <Gold.PLP.Chemscore.Metal>  (226) 
0.0000

>  <Gold.PLP.Fitness>  (226) 
40.9512

>  <Gold.PLP.PLP>  (226) 
-38.3342

>  <Gold.PLP.ligand.clash>  (226) 
0.0000

>  <Gold.PLP.ligand.torsion>  (226) 
0.5021

>  <Gold.PLP.part.buried>  (226) 
-10.7240

>  <Gold.PLP.part.hbond>  (226) 
-2.3861

>  <Gold.PLP.part.metal>  (226) 
0.0000

>  <Gold.PLP.part.nonpolar>  (226) 
-25.8197

>  <Gold.PLP.part.repulsive>  (226) 
0.7596

>  <Gold.Protein.RotatedAtoms>  (226) 


>  <Gold.Protein.RotatedTorsions>  (226) 


>  <Gold.Protein.RotatedWaterAtoms>  (226) 


>  <Gold.Version>  (226) 
5.3.0

>  <PLP.Chemscore.CHOScore>  (226) 


>  <PLP.Chemscore.Hbond>  (226) 


>  <PLP.Chemscore.Internal.Correction>  (226) 


>  <PLP.Chemscore.Metal>  (226) 


>  <PLP.Fitness>  (226) 


>  <PLP.PLP>  (226) 


>  <PLP.ligand.clash>  (226) 


>  <PLP.ligand.torsion>  (226) 


>  <PLP.part.buried>  (226) 


>  <PLP.part.hbond>  (226) 


>  <PLP.part.metal>  (226) 


>  <PLP.part.nonpolar>  (226) 


>  <PLP.part.repulsive>  (226) 


>  <Version>  (226) 


$$$$
3226|Compound_1967|Compounds_3D_F|sdf|574|dock6|1
     RDKit          3D

 20 22  0  0  0  0  0  0  0  0999 V2000
   -9.1522  -20.6258   10.6895 O   0  0  0  0  0  0  0  0  0  0  0  0
   -9.7968  -19.5478   11.1939 C   0  0  0  0  0  0  0  0  0  0  0  0
  -11.1962  -19.5581   11.3550 C   0  0  0  0  0  0  0  0  0  0  0  0
  -12.1595  -20.4631   11.1077 N   0  0  0  0  0  0  0  0  0  0  0  0
  -13.3096  -19.9844   11.4332 N   0  0  0  0  0  0  0  0  0  0  0  0
  -13.1484  -18.6834   11.9332 N   0  0  0  0  0  0  0  0  0  0  0  0
  -11.8100  -18.4090   11.8849 C   0  0  0  0  0  0  0  0  0  0  0  0
  -11.0576  -17.3637   12.2128 N   0  0  0  0  0  0  0  0  0  0  0  0
   -9.7466  -17.3997   12.0442 C   0  0  0  0  0  0  0  0  0  0  0  0
   -9.1249  -18.4632   11.5525 N   0  0  0  0  0  0  0  0  0  0  0  0
   -8.9945  -16.2873   12.3983 N   0  0  0  0  0  0  0  0  0  0  0  0
   -7.8835  -15.9764   11.7022 C   0  0  0  0  0  0  0  0  0  0  0  0
   -7.5403  -16.6694   10.7632 O   0  0  0  0  0  0  0  0  0  0  0  0
   -7.0851  -14.7957   12.0773 C   0  0  0  0  0  0  0  0  0  0  0  0
   -5.7316  -14.7116   12.2968 C   0  0  0  0  0  0  0  0  0  0  0  0
   -5.4809  -13.4384   12.6099 O   0  0  0  0  0  0  0  0  0  0  0  0
   -6.4690  -12.7469   12.6122 N   0  0  0  0  0  0  0  0  0  0  0  0
   -7.5402  -13.4151   12.3022 C   0  0  0  0  0  0  0  0  0  0  0  0
   -8.9498  -12.8897   12.2041 C   0  0  0  0  0  0  0  0  0  0  0  0
   -4.7299  -15.8331   12.2038 C   0  0  0  0  0  0  0  0  0  0  0  0
  1  2  1  0
  2  3  2  0
  2 10  1  0
  3  4  1  0
  3  7  1  0
  4  5  2  0
  5  6  1  0
  6  7  1  0
  7  8  2  0
  8  9  1  0
  9 10  2  0
  9 11  1  0
 11 12  1  0
 12 13  2  0
 12 14  1  0
 14 15  2  0
 14 18  1  0
 15 16  1  0
 15 20  1  0
 16 17  1  0
 17 18  2  0
 18 19  1  0
M  END
>  <Gold.Gold.Protein.RotatedWaterAtoms>  (227) 


>  <Gold.Id.Protein>  (227) 


>  <Gold.PLP.Chemscore.CHOScore>  (227) 
0.0000

>  <Gold.PLP.Chemscore.Hbond>  (227) 
1.7207

>  <Gold.PLP.Chemscore.Internal.Correction>  (227) 
0.4085

>  <Gold.PLP.Chemscore.Metal>  (227) 
0.0000

>  <Gold.PLP.Fitness>  (227) 
38.8922

>  <Gold.PLP.PLP>  (227) 
-35.5609

>  <Gold.PLP.ligand.clash>  (227) 
0.0000

>  <Gold.PLP.ligand.torsion>  (227) 
1.1197

>  <Gold.PLP.part.buried>  (227) 
-8.8669

>  <Gold.PLP.part.hbond>  (227) 
-2.6192

>  <Gold.PLP.part.metal>  (227) 
0.0000

>  <Gold.PLP.part.nonpolar>  (227) 
-26.1331

>  <Gold.PLP.part.repulsive>  (227) 
0.8372

>  <Gold.Protein.RotatedAtoms>  (227) 


>  <Gold.Protein.RotatedTorsions>  (227) 


>  <Gold.Protein.RotatedWaterAtoms>  (227) 


>  <Gold.Version>  (227) 
5.3.0

>  <PLP.Chemscore.CHOScore>  (227) 


>  <PLP.Chemscore.Hbond>  (227) 


>  <PLP.Chemscore.Internal.Correction>  (227) 


>  <PLP.Chemscore.Metal>  (227) 


>  <PLP.Fitness>  (227) 


>  <PLP.PLP>  (227) 


>  <PLP.ligand.clash>  (227) 


>  <PLP.ligand.torsion>  (227) 


>  <PLP.part.buried>  (227) 


>  <PLP.part.hbond>  (227) 


>  <PLP.part.metal>  (227) 


>  <PLP.part.nonpolar>  (227) 


>  <PLP.part.repulsive>  (227) 


>  <Version>  (227) 


$$$$
3227|Compound_1967|Compounds_3D_F|sdf|574|dock7|1
     RDKit          3D

 20 22  0  0  0  0  0  0  0  0999 V2000
  -12.2094  -19.0919   12.7056 O   0  0  0  0  0  0  0  0  0  0  0  0
  -11.1214  -19.1227   11.9012 C   0  0  0  0  0  0  0  0  0  0  0  0
  -11.0019  -20.0979   10.8917 C   0  0  0  0  0  0  0  0  0  0  0  0
  -11.7762  -21.1170   10.4794 N   0  0  0  0  0  0  0  0  0  0  0  0
  -11.2131  -21.7305    9.4973 N   0  0  0  0  0  0  0  0  0  0  0  0
   -9.9870  -21.1147    9.2044 N   0  0  0  0  0  0  0  0  0  0  0  0
   -9.8489  -20.0793   10.0865 C   0  0  0  0  0  0  0  0  0  0  0  0
   -8.9212  -19.1525   10.3021 N   0  0  0  0  0  0  0  0  0  0  0  0
   -9.0768  -18.2561   11.2619 C   0  0  0  0  0  0  0  0  0  0  0  0
  -10.1493  -18.2330   12.0419 N   0  0  0  0  0  0  0  0  0  0  0  0
   -8.0851  -17.3038   11.4567 N   0  0  0  0  0  0  0  0  0  0  0  0
   -8.4107  -16.0735   11.8993 C   0  0  0  0  0  0  0  0  0  0  0  0
   -9.5730  -15.7978   12.1291 O   0  0  0  0  0  0  0  0  0  0  0  0
   -7.3586  -15.0625   12.1065 C   0  0  0  0  0  0  0  0  0  0  0  0
   -7.4736  -13.6935   12.1032 C   0  0  0  0  0  0  0  0  0  0  0  0
   -6.2498  -13.2137   12.3358 O   0  0  0  0  0  0  0  0  0  0  0  0
   -5.4206  -14.0778   12.4784 N   0  0  0  0  0  0  0  0  0  0  0  0
   -5.9273  -15.2705   12.3748 C   0  0  0  0  0  0  0  0  0  0  0  0
   -5.2015  -16.5865   12.4940 C   0  0  0  0  0  0  0  0  0  0  0  0
   -8.7304  -12.8932   11.8803 C   0  0  0  0  0  0  0  0  0  0  0  0
  1  2  1  0
  2  3  2  0
  2 10  1  0
  3  4  1  0
  3  7  1  0
  4  5  2  0
  5  6  1  0
  6  7  1  0
  7  8  2  0
  8  9  1  0
  9 10  2  0
  9 11  1  0
 11 12  1  0
 12 13  2  0
 12 14  1  0
 14 15  2  0
 14 18  1  0
 15 16  1  0
 15 20  1  0
 16 17  1  0
 17 18  2  0
 18 19  1  0
M  END
>  <Gold.Gold.Protein.RotatedWaterAtoms>  (228) 


>  <Gold.Id.Protein>  (228) 


>  <Gold.PLP.Chemscore.CHOScore>  (228) 
0.0000

>  <Gold.PLP.Chemscore.Hbond>  (228) 
1.3810

>  <Gold.PLP.Chemscore.Internal.Correction>  (228) 
0.4085

>  <Gold.PLP.Chemscore.Metal>  (228) 
0.0000

>  <Gold.PLP.Fitness>  (228) 
40.3434

>  <Gold.PLP.PLP>  (228) 
-36.7218

>  <Gold.PLP.ligand.clash>  (228) 
0.0000

>  <Gold.PLP.ligand.torsion>  (228) 
0.4649

>  <Gold.PLP.part.buried>  (228) 
-9.7171

>  <Gold.PLP.part.hbond>  (228) 
-2.0000

>  <Gold.PLP.part.metal>  (228) 
0.0000

>  <Gold.PLP.part.nonpolar>  (228) 
-25.5844

>  <Gold.PLP.part.repulsive>  (228) 
0.6459

>  <Gold.Protein.RotatedAtoms>  (228) 


>  <Gold.Protein.RotatedTorsions>  (228) 


>  <Gold.Protein.RotatedWaterAtoms>  (228) 


>  <Gold.Version>  (228) 
5.3.0

>  <PLP.Chemscore.CHOScore>  (228) 


>  <PLP.Chemscore.Hbond>  (228) 


>  <PLP.Chemscore.Internal.Correction>  (228) 


>  <PLP.Chemscore.Metal>  (228) 


>  <PLP.Fitness>  (228) 


>  <PLP.PLP>  (228) 


>  <PLP.ligand.clash>  (228) 


>  <PLP.ligand.torsion>  (228) 


>  <PLP.part.buried>  (228) 


>  <PLP.part.hbond>  (228) 


>  <PLP.part.metal>  (228) 


>  <PLP.part.nonpolar>  (228) 


>  <PLP.part.repulsive>  (228) 


>  <Version>  (228) 


$$$$
3228|Compound_1967|Compounds_3D_F|sdf|574|dock8|1
     RDKit          3D

 20 22  0  0  0  0  0  0  0  0999 V2000
  -12.2489  -18.1318   12.4244 O   0  0  0  0  0  0  0  0  0  0  0  0
  -11.1381  -18.2024   11.6543 C   0  0  0  0  0  0  0  0  0  0  0  0
  -11.0515  -19.1351   10.6022 C   0  0  0  0  0  0  0  0  0  0  0  0
  -11.8800  -20.0760   10.1158 N   0  0  0  0  0  0  0  0  0  0  0  0
  -11.3269  -20.6813    9.1230 N   0  0  0  0  0  0  0  0  0  0  0  0
  -10.0513  -20.1414    8.8999 N   0  0  0  0  0  0  0  0  0  0  0  0
   -9.8724  -19.1610    9.8359 C   0  0  0  0  0  0  0  0  0  0  0  0
   -8.8906  -18.3139   10.1264 N   0  0  0  0  0  0  0  0  0  0  0  0
   -9.0169  -17.4548   11.1237 C   0  0  0  0  0  0  0  0  0  0  0  0
  -10.1119  -17.3919   11.8695 N   0  0  0  0  0  0  0  0  0  0  0  0
   -7.9686  -16.5858   11.3966 N   0  0  0  0  0  0  0  0  0  0  0  0
   -8.2260  -15.3257   11.7983 C   0  0  0  0  0  0  0  0  0  0  0  0
   -9.3762  -14.9500   11.9229 O   0  0  0  0  0  0  0  0  0  0  0  0
   -7.1139  -14.4031   12.0885 C   0  0  0  0  0  0  0  0  0  0  0  0
   -5.8079  -14.7039   12.3905 C   0  0  0  0  0  0  0  0  0  0  0  0
   -5.1860  -13.5365   12.5703 O   0  0  0  0  0  0  0  0  0  0  0  0
   -5.9119  -12.5846   12.4233 N   0  0  0  0  0  0  0  0  0  0  0  0
   -7.1270  -12.9325   12.1191 C   0  0  0  0  0  0  0  0  0  0  0  0
   -8.3019  -12.0233   11.8626 C   0  0  0  0  0  0  0  0  0  0  0  0
   -5.1992  -16.0778   12.4986 C   0  0  0  0  0  0  0  0  0  0  0  0
  1  2  1  0
  2  3  2  0
  2 10  1  0
  3  4  1  0
  3  7  1  0
  4  5  2  0
  5  6  1  0
  6  7  1  0
  7  8  2  0
  8  9  1  0
  9 10  2  0
  9 11  1  0
 11 12  1  0
 12 13  2  0
 12 14  1  0
 14 15  2  0
 14 18  1  0
 15 16  1  0
 15 20  1  0
 16 17  1  0
 17 18  2  0
 18 19  1  0
M  END
>  <Gold.Gold.Protein.RotatedWaterAtoms>  (229) 


>  <Gold.Id.Protein>  (229) 


>  <Gold.PLP.Chemscore.CHOScore>  (229) 
0.0000

>  <Gold.PLP.Chemscore.Hbond>  (229) 
1.6400

>  <Gold.PLP.Chemscore.Internal.Correction>  (229) 
0.4085

>  <Gold.PLP.Chemscore.Metal>  (229) 
0.0000

>  <Gold.PLP.Fitness>  (229) 
42.6377

>  <Gold.PLP.PLP>  (229) 
-38.2296

>  <Gold.PLP.ligand.clash>  (229) 
0.0000

>  <Gold.PLP.ligand.torsion>  (229) 
0.4602

>  <Gold.PLP.part.buried>  (229) 
-10.2169

>  <Gold.PLP.part.hbond>  (229) 
-3.1092

>  <Gold.PLP.part.metal>  (229) 
0.0000

>  <Gold.PLP.part.nonpolar>  (229) 
-25.9700

>  <Gold.PLP.part.repulsive>  (229) 
0.9412

>  <Gold.Protein.RotatedAtoms>  (229) 


>  <Gold.Protein.RotatedTorsions>  (229) 


>  <Gold.Protein.RotatedWaterAtoms>  (229) 


>  <Gold.Version>  (229) 
5.3.0

>  <PLP.Chemscore.CHOScore>  (229) 


>  <PLP.Chemscore.Hbond>  (229) 


>  <PLP.Chemscore.Internal.Correction>  (229) 


>  <PLP.Chemscore.Metal>  (229) 


>  <PLP.Fitness>  (229) 


>  <PLP.PLP>  (229) 


>  <PLP.ligand.clash>  (229) 


>  <PLP.ligand.torsion>  (229) 


>  <PLP.part.buried>  (229) 


>  <PLP.part.hbond>  (229) 


>  <PLP.part.metal>  (229) 


>  <PLP.part.nonpolar>  (229) 


>  <PLP.part.repulsive>  (229) 


>  <Version>  (229) 


$$$$
3229|Compound_1967|Compounds_3D_F|sdf|574|dock9|1
     RDKit          3D

 20 22  0  0  0  0  0  0  0  0999 V2000
  -12.0707  -18.0748   12.4025 O   0  0  0  0  0  0  0  0  0  0  0  0
  -10.9000  -18.1996   11.7347 C   0  0  0  0  0  0  0  0  0  0  0  0
  -10.6823  -19.2851   10.8636 C   0  0  0  0  0  0  0  0  0  0  0  0
  -11.4200  -20.3441   10.4863 N   0  0  0  0  0  0  0  0  0  0  0  0
  -10.7594  -21.0676    9.6508 N   0  0  0  0  0  0  0  0  0  0  0  0
   -9.4996  -20.4912    9.4293 N   0  0  0  0  0  0  0  0  0  0  0  0
   -9.4463  -19.3610   10.1967 C   0  0  0  0  0  0  0  0  0  0  0  0
   -8.5355  -18.4166   10.4078 N   0  0  0  0  0  0  0  0  0  0  0  0
   -8.7847  -17.4152   11.2348 C   0  0  0  0  0  0  0  0  0  0  0  0
   -9.9372  -17.3008   11.8811 N   0  0  0  0  0  0  0  0  0  0  0  0
   -7.8075  -16.4479   11.4296 N   0  0  0  0  0  0  0  0  0  0  0  0
   -8.1631  -15.1727   11.6804 C   0  0  0  0  0  0  0  0  0  0  0  0
   -9.3397  -14.8693   11.7371 O   0  0  0  0  0  0  0  0  0  0  0  0
   -7.1265  -14.1457   11.8876 C   0  0  0  0  0  0  0  0  0  0  0  0
   -7.2572  -12.7784   11.8575 C   0  0  0  0  0  0  0  0  0  0  0  0
   -6.0433  -12.2802   12.1026 O   0  0  0  0  0  0  0  0  0  0  0  0
   -5.2069  -13.1317   12.2752 N   0  0  0  0  0  0  0  0  0  0  0  0
   -5.6979  -14.3320   12.1844 C   0  0  0  0  0  0  0  0  0  0  0  0
   -4.9591  -15.6369   12.3400 C   0  0  0  0  0  0  0  0  0  0  0  0
   -8.5190  -11.9972   11.5984 C   0  0  0  0  0  0  0  0  0  0  0  0
  1  2  1  0
  2  3  2  0
  2 10  1  0
  3  4  1  0
  3  7  1  0
  4  5  2  0
  5  6  1  0
  6  7  1  0
  7  8  2  0
  8  9  1  0
  9 10  2  0
  9 11  1  0
 11 12  1  0
 12 13  2  0
 12 14  1  0
 14 15  2  0
 14 18  1  0
 15 16  1  0
 15 20  1  0
 16 17  1  0
 17 18  2  0
 18 19  1  0
M  END
>  <Gold.Gold.Protein.RotatedWaterAtoms>  (230) 


>  <Gold.Id.Protein>  (230) 


>  <Gold.PLP.Chemscore.CHOScore>  (230) 
0.0000

>  <Gold.PLP.Chemscore.Hbond>  (230) 
1.0000

>  <Gold.PLP.Chemscore.Internal.Correction>  (230) 
0.4085

>  <Gold.PLP.Chemscore.Metal>  (230) 
0.0000

>  <Gold.PLP.Fitness>  (230) 
41.6306

>  <Gold.PLP.PLP>  (230) 
-38.8791

>  <Gold.PLP.ligand.clash>  (230) 
0.0000

>  <Gold.PLP.ligand.torsion>  (230) 
0.3285

>  <Gold.PLP.part.buried>  (230) 
-10.0425

>  <Gold.PLP.part.hbond>  (230) 
-3.5439

>  <Gold.PLP.part.metal>  (230) 
0.0000

>  <Gold.PLP.part.nonpolar>  (230) 
-26.5140

>  <Gold.PLP.part.repulsive>  (230) 
0.8523

>  <Gold.Protein.RotatedAtoms>  (230) 


>  <Gold.Protein.RotatedTorsions>  (230) 


>  <Gold.Protein.RotatedWaterAtoms>  (230) 


>  <Gold.Version>  (230) 
5.3.0

>  <PLP.Chemscore.CHOScore>  (230) 


>  <PLP.Chemscore.Hbond>  (230) 


>  <PLP.Chemscore.Internal.Correction>  (230) 


>  <PLP.Chemscore.Metal>  (230) 


>  <PLP.Fitness>  (230) 


>  <PLP.PLP>  (230) 


>  <PLP.ligand.clash>  (230) 


>  <PLP.ligand.torsion>  (230) 


>  <PLP.part.buried>  (230) 


>  <PLP.part.hbond>  (230) 


>  <PLP.part.metal>  (230) 


>  <PLP.part.nonpolar>  (230) 


>  <PLP.part.repulsive>  (230) 


>  <Version>  (230) 


$$$$
3230|Compound_1991|Compounds_3D_F|sdf|575|dock1|1
     RDKit          3D

 27 29  0  0  0  0  0  0  0  0999 V2000
  -10.7204  -15.7546   13.0023 O   0  0  0  0  0  0  0  0  0  0  0  0
  -10.1909  -16.8422   12.3970 C   0  0  0  0  0  0  0  0  0  0  0  0
   -8.8838  -16.8026   11.8472 C   0  0  0  0  0  0  0  0  0  0  0  0
   -8.1301  -15.7066   11.9031 N   0  0  0  0  0  0  0  0  0  0  0  0
   -6.9245  -15.7200   11.3791 C   0  0  0  0  0  0  0  0  0  0  0  0
   -6.4282  -16.8699   10.7655 C   0  0  0  0  0  0  0  0  0  0  0  0
   -7.1551  -17.9647   10.6996 N   0  0  0  0  0  0  0  0  0  0  0  0
   -8.3828  -17.9734   11.2251 C   0  0  0  0  0  0  0  0  0  0  0  0
   -9.1601  -19.0626   11.1827 N   0  0  0  0  0  0  0  0  0  0  0  0
  -10.3686  -19.0432   11.7103 C   0  0  0  0  0  0  0  0  0  0  0  0
  -10.8766  -17.9685   12.3077 N   0  0  0  0  0  0  0  0  0  0  0  0
  -11.1410  -20.1929   11.6441 N   0  0  0  0  0  0  0  0  0  0  0  0
  -12.4606  -20.1050   11.3844 C   0  0  0  0  0  0  0  0  0  0  0  0
  -12.9735  -19.0161   11.2068 O   0  0  0  0  0  0  0  0  0  0  0  0
  -13.2814  -21.3260   11.3146 C   0  0  0  0  0  0  0  0  0  0  0  0
  -14.3672  -21.5842   10.5128 C   0  0  0  0  0  0  0  0  0  0  0  0
  -14.7681  -22.8217   10.8120 O   0  0  0  0  0  0  0  0  0  0  0  0
  -14.0956  -23.3461   11.6642 N   0  0  0  0  0  0  0  0  0  0  0  0
  -13.1361  -22.5740   12.0800 C   0  0  0  0  0  0  0  0  0  0  0  0
  -12.1016  -22.8860   13.1313 C   0  0  0  0  0  0  0  0  0  0  0  0
  -14.9827  -20.6538    9.5001 C   0  0  0  0  0  0  0  0  0  0  0  0
   -6.0707  -14.4801   11.4409 C   0  0  0  0  0  0  0  0  0  0  0  0
   -4.7936  -14.8072   11.9914 O   0  0  0  0  0  0  0  0  0  0  0  0
   -6.7533  -13.4332   12.3243 C   0  0  0  0  0  0  0  0  0  0  0  0
   -7.9973  -13.0496   11.7342 O   0  0  0  0  0  0  0  0  0  0  0  0
   -5.8494  -12.2063   12.4533 C   0  0  0  0  0  0  0  0  0  0  0  0
   -4.7094  -12.5359   13.2496 O   0  0  0  0  0  0  0  0  0  0  0  0
  1  2  1  0
  2  3  2  0
  2 11  1  0
  3  4  1  0
  3  8  1  0
  4  5  2  0
  5  6  1  0
  5 22  1  0
  6  7  2  0
  7  8  1  0
  8  9  2  0
  9 10  1  0
 10 11  2  0
 10 12  1  0
 12 13  1  0
 13 14  2  0
 13 15  1  0
 15 16  2  0
 15 19  1  0
 16 17  1  0
 16 21  1  0
 17 18  1  0
 18 19  2  0
 19 20  1  0
 22 23  1  0
 22 24  1  0
 24 25  1  0
 24 26  1  0
 26 27  1  0
M  END
>  <Gold.Gold.Protein.RotatedWaterAtoms>  (231) 


>  <Gold.Id.Protein>  (231) 


>  <Gold.PLP.Chemscore.CHOScore>  (231) 
0.0000

>  <Gold.PLP.Chemscore.Hbond>  (231) 
6.4531

>  <Gold.PLP.Chemscore.Internal.Correction>  (231) 
0.6249

>  <Gold.PLP.Chemscore.Metal>  (231) 
0.0000

>  <Gold.PLP.Fitness>  (231) 
64.0214

>  <Gold.PLP.PLP>  (231) 
-45.9486

>  <Gold.PLP.ligand.clash>  (231) 
0.0000

>  <Gold.PLP.ligand.torsion>  (231) 
0.9557

>  <Gold.PLP.part.buried>  (231) 
-6.8341

>  <Gold.PLP.part.hbond>  (231) 
-11.4830

>  <Gold.PLP.part.metal>  (231) 
0.0000

>  <Gold.PLP.part.nonpolar>  (231) 
-29.2256

>  <Gold.PLP.part.repulsive>  (231) 
0.2333

>  <Gold.Protein.RotatedAtoms>  (231) 


>  <Gold.Protein.RotatedTorsions>  (231) 


>  <Gold.Protein.RotatedWaterAtoms>  (231) 


>  <Gold.Version>  (231) 
5.3.0

>  <PLP.Chemscore.CHOScore>  (231) 


>  <PLP.Chemscore.Hbond>  (231) 


>  <PLP.Chemscore.Internal.Correction>  (231) 


>  <PLP.Chemscore.Metal>  (231) 


>  <PLP.Fitness>  (231) 


>  <PLP.PLP>  (231) 


>  <PLP.ligand.clash>  (231) 


>  <PLP.ligand.torsion>  (231) 


>  <PLP.part.buried>  (231) 


>  <PLP.part.hbond>  (231) 


>  <PLP.part.metal>  (231) 


>  <PLP.part.nonpolar>  (231) 


>  <PLP.part.repulsive>  (231) 


>  <Version>  (231) 


$$$$
3231|Compound_1991|Compounds_3D_F|sdf|575|dock2|1
     RDKit          3D

 27 29  0  0  0  0  0  0  0  0999 V2000
  -10.6932  -15.6821   13.0171 O   0  0  0  0  0  0  0  0  0  0  0  0
  -10.1911  -16.7384   12.3376 C   0  0  0  0  0  0  0  0  0  0  0  0
   -8.9103  -16.6693   11.7317 C   0  0  0  0  0  0  0  0  0  0  0  0
   -8.1555  -15.5751   11.8053 N   0  0  0  0  0  0  0  0  0  0  0  0
   -6.9749  -15.5603   11.2271 C   0  0  0  0  0  0  0  0  0  0  0  0
   -6.5063  -16.6786   10.5378 C   0  0  0  0  0  0  0  0  0  0  0  0
   -7.2347  -17.7711   10.4532 N   0  0  0  0  0  0  0  0  0  0  0  0
   -8.4374  -17.8079   11.0328 C   0  0  0  0  0  0  0  0  0  0  0  0
   -9.2151  -18.8961   10.9741 N   0  0  0  0  0  0  0  0  0  0  0  0
  -10.3985  -18.9050   11.5563 C   0  0  0  0  0  0  0  0  0  0  0  0
  -10.8795  -17.8611   12.2263 N   0  0  0  0  0  0  0  0  0  0  0  0
  -11.1723  -20.0524   11.4708 N   0  0  0  0  0  0  0  0  0  0  0  0
  -12.5164  -19.9584   11.4352 C   0  0  0  0  0  0  0  0  0  0  0  0
  -13.0502  -18.8659   11.4770 O   0  0  0  0  0  0  0  0  0  0  0  0
  -13.3386  -21.1771   11.3450 C   0  0  0  0  0  0  0  0  0  0  0  0
  -14.3652  -21.4559   10.4750 C   0  0  0  0  0  0  0  0  0  0  0  0
  -14.7957  -22.6811   10.7836 O   0  0  0  0  0  0  0  0  0  0  0  0
  -14.1906  -23.1808   11.6989 N   0  0  0  0  0  0  0  0  0  0  0  0
  -13.2583  -22.4002   12.1586 C   0  0  0  0  0  0  0  0  0  0  0  0
  -12.3052  -22.6829   13.2919 C   0  0  0  0  0  0  0  0  0  0  0  0
  -14.8988  -20.5559    9.3908 C   0  0  0  0  0  0  0  0  0  0  0  0
   -6.1200  -14.3224   11.3089 C   0  0  0  0  0  0  0  0  0  0  0  0
   -4.8090  -14.6763   11.7531 O   0  0  0  0  0  0  0  0  0  0  0  0
   -6.7438  -13.3350   12.2978 C   0  0  0  0  0  0  0  0  0  0  0  0
   -8.0525  -12.9749   11.8503 O   0  0  0  0  0  0  0  0  0  0  0  0
   -5.8716  -12.0818   12.3868 C   0  0  0  0  0  0  0  0  0  0  0  0
   -4.7108  -12.3638   13.1713 O   0  0  0  0  0  0  0  0  0  0  0  0
  1  2  1  0
  2  3  2  0
  2 11  1  0
  3  4  1  0
  3  8  1  0
  4  5  2  0
  5  6  1  0
  5 22  1  0
  6  7  2  0
  7  8  1  0
  8  9  2  0
  9 10  1  0
 10 11  2  0
 10 12  1  0
 12 13  1  0
 13 14  2  0
 13 15  1  0
 15 16  2  0
 15 19  1  0
 16 17  1  0
 16 21  1  0
 17 18  1  0
 18 19  2  0
 19 20  1  0
 22 23  1  0
 22 24  1  0
 24 25  1  0
 24 26  1  0
 26 27  1  0
M  END
>  <Gold.Gold.Protein.RotatedWaterAtoms>  (232) 


>  <Gold.Id.Protein>  (232) 


>  <Gold.PLP.Chemscore.CHOScore>  (232) 
0.0000

>  <Gold.PLP.Chemscore.Hbond>  (232) 
6.2194

>  <Gold.PLP.Chemscore.Internal.Correction>  (232) 
0.5688

>  <Gold.PLP.Chemscore.Metal>  (232) 
0.0000

>  <Gold.PLP.Fitness>  (232) 
63.2305

>  <Gold.PLP.PLP>  (232) 
-46.7517

>  <Gold.PLP.ligand.clash>  (232) 
0.0000

>  <Gold.PLP.ligand.torsion>  (232) 
1.3741

>  <Gold.PLP.part.buried>  (232) 
-6.0165

>  <Gold.PLP.part.hbond>  (232) 
-11.4728

>  <Gold.PLP.part.metal>  (232) 
0.0000

>  <Gold.PLP.part.nonpolar>  (232) 
-29.7939

>  <Gold.PLP.part.repulsive>  (232) 
0.2584

>  <Gold.Protein.RotatedAtoms>  (232) 


>  <Gold.Protein.RotatedTorsions>  (232) 


>  <Gold.Protein.RotatedWaterAtoms>  (232) 


>  <Gold.Version>  (232) 
5.3.0

>  <PLP.Chemscore.CHOScore>  (232) 


>  <PLP.Chemscore.Hbond>  (232) 


>  <PLP.Chemscore.Internal.Correction>  (232) 


>  <PLP.Chemscore.Metal>  (232) 


>  <PLP.Fitness>  (232) 


>  <PLP.PLP>  (232) 


>  <PLP.ligand.clash>  (232) 


>  <PLP.ligand.torsion>  (232) 


>  <PLP.part.buried>  (232) 


>  <PLP.part.hbond>  (232) 


>  <PLP.part.metal>  (232) 


>  <PLP.part.nonpolar>  (232) 


>  <PLP.part.repulsive>  (232) 


>  <Version>  (232) 


$$$$
3232|Compound_1991|Compounds_3D_F|sdf|575|dock3|1
     RDKit          3D

 27 29  0  0  0  0  0  0  0  0999 V2000
   -7.0048  -19.3705    9.9812 O   0  0  0  0  0  0  0  0  0  0  0  0
   -8.1619  -18.9952   10.5727 C   0  0  0  0  0  0  0  0  0  0  0  0
   -8.3413  -17.6675   11.0391 C   0  0  0  0  0  0  0  0  0  0  0  0
   -7.3903  -16.7441   10.9157 N   0  0  0  0  0  0  0  0  0  0  0  0
   -7.6047  -15.5269   11.3638 C   0  0  0  0  0  0  0  0  0  0  0  0
   -8.8175  -15.1943   11.9668 C   0  0  0  0  0  0  0  0  0  0  0  0
   -9.7719  -16.0905   12.0984 N   0  0  0  0  0  0  0  0  0  0  0  0
   -9.5753  -17.3333   11.6507 C   0  0  0  0  0  0  0  0  0  0  0  0
  -10.5158  -18.2796   11.7619 N   0  0  0  0  0  0  0  0  0  0  0  0
  -10.2949  -19.4989   11.3104 C   0  0  0  0  0  0  0  0  0  0  0  0
   -9.1541  -19.8548   10.7257 N   0  0  0  0  0  0  0  0  0  0  0  0
  -11.2956  -20.4491   11.4462 N   0  0  0  0  0  0  0  0  0  0  0  0
  -12.1018  -20.7333   10.4041 C   0  0  0  0  0  0  0  0  0  0  0  0
  -11.9501  -20.1563    9.3438 O   0  0  0  0  0  0  0  0  0  0  0  0
  -13.1652  -21.7421   10.5483 C   0  0  0  0  0  0  0  0  0  0  0  0
  -14.1454  -22.0886    9.6496 C   0  0  0  0  0  0  0  0  0  0  0  0
  -14.8662  -23.0488   10.2329 O   0  0  0  0  0  0  0  0  0  0  0  0
  -14.4740  -23.3331   11.3369 N   0  0  0  0  0  0  0  0  0  0  0  0
  -13.4355  -22.6338   11.6868 C   0  0  0  0  0  0  0  0  0  0  0  0
  -12.6765  -22.7114   12.9871 C   0  0  0  0  0  0  0  0  0  0  0  0
  -14.3631  -21.4995    8.2800 C   0  0  0  0  0  0  0  0  0  0  0  0
   -6.5290  -14.4811   11.2255 C   0  0  0  0  0  0  0  0  0  0  0  0
   -5.8445  -14.6619    9.9846 O   0  0  0  0  0  0  0  0  0  0  0  0
   -5.5341  -14.6156   12.3805 C   0  0  0  0  0  0  0  0  0  0  0  0
   -4.6037  -13.5315   12.3368 O   0  0  0  0  0  0  0  0  0  0  0  0
   -4.7808  -15.9406   12.2538 C   0  0  0  0  0  0  0  0  0  0  0  0
   -3.7259  -15.7997   11.3001 O   0  0  0  0  0  0  0  0  0  0  0  0
  1  2  1  0
  2  3  2  0
  2 11  1  0
  3  4  1  0
  3  8  1  0
  4  5  2  0
  5  6  1  0
  5 22  1  0
  6  7  2  0
  7  8  1  0
  8  9  2  0
  9 10  1  0
 10 11  2  0
 10 12  1  0
 12 13  1  0
 13 14  2  0
 13 15  1  0
 15 16  2  0
 15 19  1  0
 16 17  1  0
 16 21  1  0
 17 18  1  0
 18 19  2  0
 19 20  1  0
 22 23  1  0
 22 24  1  0
 24 25  1  0
 24 26  1  0
 26 27  1  0
M  END
>  <Gold.Gold.Protein.RotatedWaterAtoms>  (233) 


>  <Gold.Id.Protein>  (233) 


>  <Gold.PLP.Chemscore.CHOScore>  (233) 
0.0000

>  <Gold.PLP.Chemscore.Hbond>  (233) 
5.0847

>  <Gold.PLP.Chemscore.Internal.Correction>  (233) 
0.5688

>  <Gold.PLP.Chemscore.Metal>  (233) 
0.0000

>  <Gold.PLP.Fitness>  (233) 
58.5012

>  <Gold.PLP.PLP>  (233) 
-45.9816

>  <Gold.PLP.ligand.clash>  (233) 
0.0000

>  <Gold.PLP.ligand.torsion>  (233) 
1.6517

>  <Gold.PLP.part.buried>  (233) 
-8.1438

>  <Gold.PLP.part.hbond>  (233) 
-8.6869

>  <Gold.PLP.part.metal>  (233) 
0.0000

>  <Gold.PLP.part.nonpolar>  (233) 
-28.6577

>  <Gold.PLP.part.repulsive>  (233) 
0.1378

>  <Gold.Protein.RotatedAtoms>  (233) 


>  <Gold.Protein.RotatedTorsions>  (233) 


>  <Gold.Protein.RotatedWaterAtoms>  (233) 


>  <Gold.Version>  (233) 
5.3.0

>  <PLP.Chemscore.CHOScore>  (233) 


>  <PLP.Chemscore.Hbond>  (233) 


>  <PLP.Chemscore.Internal.Correction>  (233) 


>  <PLP.Chemscore.Metal>  (233) 


>  <PLP.Fitness>  (233) 


>  <PLP.PLP>  (233) 


>  <PLP.ligand.clash>  (233) 


>  <PLP.ligand.torsion>  (233) 


>  <PLP.part.buried>  (233) 


>  <PLP.part.hbond>  (233) 


>  <PLP.part.metal>  (233) 


>  <PLP.part.nonpolar>  (233) 


>  <PLP.part.repulsive>  (233) 


>  <Version>  (233) 


$$$$
3233|Compound_1991|Compounds_3D_F|sdf|575|dock4|1
     RDKit          3D

 27 29  0  0  0  0  0  0  0  0999 V2000
   -7.0274  -19.3583   10.0556 O   0  0  0  0  0  0  0  0  0  0  0  0
   -8.1927  -18.9627   10.6168 C   0  0  0  0  0  0  0  0  0  0  0  0
   -8.3708  -17.6248   11.0535 C   0  0  0  0  0  0  0  0  0  0  0  0
   -7.4103  -16.7112   10.9306 N   0  0  0  0  0  0  0  0  0  0  0  0
   -7.6239  -15.4837   11.3504 C   0  0  0  0  0  0  0  0  0  0  0  0
   -8.8455  -15.1302   11.9229 C   0  0  0  0  0  0  0  0  0  0  0  0
   -9.8093  -16.0164   12.0533 N   0  0  0  0  0  0  0  0  0  0  0  0
   -9.6138  -17.2693   11.6340 C   0  0  0  0  0  0  0  0  0  0  0  0
  -10.5637  -18.2062   11.7454 N   0  0  0  0  0  0  0  0  0  0  0  0
  -10.3436  -19.4357   11.3223 C   0  0  0  0  0  0  0  0  0  0  0  0
   -9.1945  -19.8117   10.7672 N   0  0  0  0  0  0  0  0  0  0  0  0
  -11.3542  -20.3755   11.4571 N   0  0  0  0  0  0  0  0  0  0  0  0
  -12.0271  -20.8031   10.3703 C   0  0  0  0  0  0  0  0  0  0  0  0
  -11.7463  -20.3647    9.2708 O   0  0  0  0  0  0  0  0  0  0  0  0
  -13.1010  -21.8009   10.5133 C   0  0  0  0  0  0  0  0  0  0  0  0
  -14.0490  -22.1776    9.5925 C   0  0  0  0  0  0  0  0  0  0  0  0
  -14.7966  -23.1114   10.1850 O   0  0  0  0  0  0  0  0  0  0  0  0
  -14.4475  -23.3545   11.3130 N   0  0  0  0  0  0  0  0  0  0  0  0
  -13.4186  -22.6467   11.6744 C   0  0  0  0  0  0  0  0  0  0  0  0
  -12.7091  -22.6773   13.0042 C   0  0  0  0  0  0  0  0  0  0  0  0
  -14.2121  -21.6410    8.1942 C   0  0  0  0  0  0  0  0  0  0  0  0
   -6.5374  -14.4489   11.2127 C   0  0  0  0  0  0  0  0  0  0  0  0
   -5.8354  -14.6546    9.9855 O   0  0  0  0  0  0  0  0  0  0  0  0
   -5.5616  -14.5735   12.3850 C   0  0  0  0  0  0  0  0  0  0  0  0
   -4.5999  -13.5183   12.3188 O   0  0  0  0  0  0  0  0  0  0  0  0
   -4.8452  -15.9227   12.3117 C   0  0  0  0  0  0  0  0  0  0  0  0
   -3.9130  -15.9091   11.2286 O   0  0  0  0  0  0  0  0  0  0  0  0
  1  2  1  0
  2  3  2  0
  2 11  1  0
  3  4  1  0
  3  8  1  0
  4  5  2  0
  5  6  1  0
  5 22  1  0
  6  7  2  0
  7  8  1  0
  8  9  2  0
  9 10  1  0
 10 11  2  0
 10 12  1  0
 12 13  1  0
 13 14  2  0
 13 15  1  0
 15 16  2  0
 15 19  1  0
 16 17  1  0
 16 21  1  0
 17 18  1  0
 18 19  2  0
 19 20  1  0
 22 23  1  0
 22 24  1  0
 24 25  1  0
 24 26  1  0
 26 27  1  0
M  END
>  <Gold.Gold.Protein.RotatedWaterAtoms>  (234) 


>  <Gold.Id.Protein>  (234) 


>  <Gold.PLP.Chemscore.CHOScore>  (234) 
0.0000

>  <Gold.PLP.Chemscore.Hbond>  (234) 
5.0005

>  <Gold.PLP.Chemscore.Internal.Correction>  (234) 
0.5688

>  <Gold.PLP.Chemscore.Metal>  (234) 
0.0000

>  <Gold.PLP.Fitness>  (234) 
57.5462

>  <Gold.PLP.PLP>  (234) 
-44.9923

>  <Gold.PLP.ligand.clash>  (234) 
0.0000

>  <Gold.PLP.ligand.torsion>  (234) 
1.5082

>  <Gold.PLP.part.buried>  (234) 
-7.9566

>  <Gold.PLP.part.hbond>  (234) 
-7.5561

>  <Gold.PLP.part.metal>  (234) 
0.0000

>  <Gold.PLP.part.nonpolar>  (234) 
-28.6985

>  <Gold.PLP.part.repulsive>  (234) 
0.1365

>  <Gold.Protein.RotatedAtoms>  (234) 


>  <Gold.Protein.RotatedTorsions>  (234) 


>  <Gold.Protein.RotatedWaterAtoms>  (234) 


>  <Gold.Version>  (234) 
5.3.0

>  <PLP.Chemscore.CHOScore>  (234) 


>  <PLP.Chemscore.Hbond>  (234) 


>  <PLP.Chemscore.Internal.Correction>  (234) 


>  <PLP.Chemscore.Metal>  (234) 


>  <PLP.Fitness>  (234) 


>  <PLP.PLP>  (234) 


>  <PLP.ligand.clash>  (234) 


>  <PLP.ligand.torsion>  (234) 


>  <PLP.part.buried>  (234) 


>  <PLP.part.hbond>  (234) 


>  <PLP.part.metal>  (234) 


>  <PLP.part.nonpolar>  (234) 


>  <PLP.part.repulsive>  (234) 


>  <Version>  (234) 


$$$$
3234|Compound_1991|Compounds_3D_F|sdf|575|dock5|1
     RDKit          3D

 27 29  0  0  0  0  0  0  0  0999 V2000
   -7.4087  -19.4192   10.4829 O   0  0  0  0  0  0  0  0  0  0  0  0
   -8.5193  -18.8691   11.0246 C   0  0  0  0  0  0  0  0  0  0  0  0
   -8.5682  -17.4850   11.3315 C   0  0  0  0  0  0  0  0  0  0  0  0
   -7.5355  -16.6768   11.1016 N   0  0  0  0  0  0  0  0  0  0  0  0
   -7.6299  -15.4006   11.4031 C   0  0  0  0  0  0  0  0  0  0  0  0
   -8.7999  -14.8861   11.9612 C   0  0  0  0  0  0  0  0  0  0  0  0
   -9.8332  -15.6662   12.1960 N   0  0  0  0  0  0  0  0  0  0  0  0
   -9.7591  -16.9659   11.8978 C   0  0  0  0  0  0  0  0  0  0  0  0
  -10.7835  -17.7992   12.1183 N   0  0  0  0  0  0  0  0  0  0  0  0
  -10.6830  -19.0784   11.8136 C   0  0  0  0  0  0  0  0  0  0  0  0
   -9.5866  -19.6069   11.2763 N   0  0  0  0  0  0  0  0  0  0  0  0
  -11.7675  -19.9070   12.0588 N   0  0  0  0  0  0  0  0  0  0  0  0
  -12.0472  -20.9196   11.2144 C   0  0  0  0  0  0  0  0  0  0  0  0
  -11.3468  -21.1068   10.2375 O   0  0  0  0  0  0  0  0  0  0  0  0
  -13.1995  -21.7994   11.4744 C   0  0  0  0  0  0  0  0  0  0  0  0
  -13.7876  -22.7127   10.6326 C   0  0  0  0  0  0  0  0  0  0  0  0
  -14.7918  -23.2624   11.3189 O   0  0  0  0  0  0  0  0  0  0  0  0
  -14.8987  -22.8249   12.4372 N   0  0  0  0  0  0  0  0  0  0  0  0
  -14.0000  -21.9239   12.7024 C   0  0  0  0  0  0  0  0  0  0  0  0
  -13.8227  -21.1603   13.9901 C   0  0  0  0  0  0  0  0  0  0  0  0
  -13.3802  -23.0278    9.2167 C   0  0  0  0  0  0  0  0  0  0  0  0
   -6.4617  -14.4849   11.1443 C   0  0  0  0  0  0  0  0  0  0  0  0
   -5.7991  -14.8847    9.9433 O   0  0  0  0  0  0  0  0  0  0  0  0
   -5.4817  -14.5629   12.3171 C   0  0  0  0  0  0  0  0  0  0  0  0
   -4.5230  -13.5084   12.2080 O   0  0  0  0  0  0  0  0  0  0  0  0
   -4.7619  -15.9121   12.2921 C   0  0  0  0  0  0  0  0  0  0  0  0
   -3.7309  -15.8840   11.3030 O   0  0  0  0  0  0  0  0  0  0  0  0
  1  2  1  0
  2  3  2  0
  2 11  1  0
  3  4  1  0
  3  8  1  0
  4  5  2  0
  5  6  1  0
  5 22  1  0
  6  7  2  0
  7  8  1  0
  8  9  2  0
  9 10  1  0
 10 11  2  0
 10 12  1  0
 12 13  1  0
 13 14  2  0
 13 15  1  0
 15 16  2  0
 15 19  1  0
 16 17  1  0
 16 21  1  0
 17 18  1  0
 18 19  2  0
 19 20  1  0
 22 23  1  0
 22 24  1  0
 24 25  1  0
 24 26  1  0
 26 27  1  0
M  END
>  <Gold.Gold.Protein.RotatedWaterAtoms>  (235) 


>  <Gold.Id.Protein>  (235) 


>  <Gold.PLP.Chemscore.CHOScore>  (235) 
0.0000

>  <Gold.PLP.Chemscore.Hbond>  (235) 
6.2605

>  <Gold.PLP.Chemscore.Internal.Correction>  (235) 
0.5688

>  <Gold.PLP.Chemscore.Metal>  (235) 
0.0000

>  <Gold.PLP.Fitness>  (235) 
61.0280

>  <Gold.PLP.PLP>  (235) 
-44.2855

>  <Gold.PLP.ligand.clash>  (235) 
0.0000

>  <Gold.PLP.ligand.torsion>  (235) 
1.3039

>  <Gold.PLP.part.buried>  (235) 
-3.2344

>  <Gold.PLP.part.hbond>  (235) 
-11.5846

>  <Gold.PLP.part.metal>  (235) 
0.0000

>  <Gold.PLP.part.nonpolar>  (235) 
-30.2251

>  <Gold.PLP.part.repulsive>  (235) 
0.3233

>  <Gold.Protein.RotatedAtoms>  (235) 


>  <Gold.Protein.RotatedTorsions>  (235) 


>  <Gold.Protein.RotatedWaterAtoms>  (235) 


>  <Gold.Version>  (235) 
5.3.0

>  <PLP.Chemscore.CHOScore>  (235) 


>  <PLP.Chemscore.Hbond>  (235) 


>  <PLP.Chemscore.Internal.Correction>  (235) 


>  <PLP.Chemscore.Metal>  (235) 


>  <PLP.Fitness>  (235) 


>  <PLP.PLP>  (235) 


>  <PLP.ligand.clash>  (235) 


>  <PLP.ligand.torsion>  (235) 


>  <PLP.part.buried>  (235) 


>  <PLP.part.hbond>  (235) 


>  <PLP.part.metal>  (235) 


>  <PLP.part.nonpolar>  (235) 


>  <PLP.part.repulsive>  (235) 


>  <Version>  (235) 


$$$$
3235|Compound_1991|Compounds_3D_F|sdf|575|dock6|1
     RDKit          3D

 27 29  0  0  0  0  0  0  0  0999 V2000
  -10.6048  -15.9507   12.8798 O   0  0  0  0  0  0  0  0  0  0  0  0
  -10.0943  -17.0674   12.3124 C   0  0  0  0  0  0  0  0  0  0  0  0
   -8.7766  -17.0773   11.7871 C   0  0  0  0  0  0  0  0  0  0  0  0
   -7.9942  -16.0010   11.8298 N   0  0  0  0  0  0  0  0  0  0  0  0
   -6.7799  -16.0604   11.3296 C   0  0  0  0  0  0  0  0  0  0  0  0
   -6.3042  -17.2387   10.7548 C   0  0  0  0  0  0  0  0  0  0  0  0
   -7.0595  -18.3148   10.7026 N   0  0  0  0  0  0  0  0  0  0  0  0
   -8.2966  -18.2768   11.2045 C   0  0  0  0  0  0  0  0  0  0  0  0
   -9.1026  -19.3454   11.1746 N   0  0  0  0  0  0  0  0  0  0  0  0
  -10.3197  -19.2797   11.6782 C   0  0  0  0  0  0  0  0  0  0  0  0
  -10.8090  -18.1767   12.2384 N   0  0  0  0  0  0  0  0  0  0  0  0
  -11.1220  -20.4095   11.6262 N   0  0  0  0  0  0  0  0  0  0  0  0
  -12.4177  -20.3009   11.2713 C   0  0  0  0  0  0  0  0  0  0  0  0
  -12.8826  -19.2109   10.9954 O   0  0  0  0  0  0  0  0  0  0  0  0
  -13.2703  -21.5007   11.2166 C   0  0  0  0  0  0  0  0  0  0  0  0
  -14.3506  -21.7481   10.4039 C   0  0  0  0  0  0  0  0  0  0  0  0
  -14.7896  -22.9671   10.7250 O   0  0  0  0  0  0  0  0  0  0  0  0
  -14.1445  -23.4894   11.5993 N   0  0  0  0  0  0  0  0  0  0  0  0
  -13.1706  -22.7339   12.0125 C   0  0  0  0  0  0  0  0  0  0  0  0
  -12.1610  -23.0491   13.0867 C   0  0  0  0  0  0  0  0  0  0  0  0
  -14.9251  -20.8252    9.3607 C   0  0  0  0  0  0  0  0  0  0  0  0
   -5.8937  -14.8428   11.3766 C   0  0  0  0  0  0  0  0  0  0  0  0
   -4.6209  -15.1997   11.9186 O   0  0  0  0  0  0  0  0  0  0  0  0
   -6.5414  -13.7731   12.2588 C   0  0  0  0  0  0  0  0  0  0  0  0
   -7.7870  -13.3716   11.6844 O   0  0  0  0  0  0  0  0  0  0  0  0
   -5.6117  -12.5629   12.3596 C   0  0  0  0  0  0  0  0  0  0  0  0
   -4.6280  -12.8003   13.3686 O   0  0  0  0  0  0  0  0  0  0  0  0
  1  2  1  0
  2  3  2  0
  2 11  1  0
  3  4  1  0
  3  8  1  0
  4  5  2  0
  5  6  1  0
  5 22  1  0
  6  7  2  0
  7  8  1  0
  8  9  2  0
  9 10  1  0
 10 11  2  0
 10 12  1  0
 12 13  1  0
 13 14  2  0
 13 15  1  0
 15 16  2  0
 15 19  1  0
 16 17  1  0
 16 21  1  0
 17 18  1  0
 18 19  2  0
 19 20  1  0
 22 23  1  0
 22 24  1  0
 24 25  1  0
 24 26  1  0
 26 27  1  0
M  END
>  <Gold.Gold.Protein.RotatedWaterAtoms>  (236) 


>  <Gold.Id.Protein>  (236) 


>  <Gold.PLP.Chemscore.CHOScore>  (236) 
0.0000

>  <Gold.PLP.Chemscore.Hbond>  (236) 
6.4492

>  <Gold.PLP.Chemscore.Internal.Correction>  (236) 
0.5688

>  <Gold.PLP.Chemscore.Metal>  (236) 
0.0000

>  <Gold.PLP.Fitness>  (236) 
62.1044

>  <Gold.PLP.PLP>  (236) 
-44.5006

>  <Gold.PLP.ligand.clash>  (236) 
0.0000

>  <Gold.PLP.ligand.torsion>  (236) 
1.1563

>  <Gold.PLP.part.buried>  (236) 
-7.7479

>  <Gold.PLP.part.hbond>  (236) 
-11.0451

>  <Gold.PLP.part.metal>  (236) 
0.0000

>  <Gold.PLP.part.nonpolar>  (236) 
-28.0194

>  <Gold.PLP.part.repulsive>  (236) 
0.1804

>  <Gold.Protein.RotatedAtoms>  (236) 


>  <Gold.Protein.RotatedTorsions>  (236) 


>  <Gold.Protein.RotatedWaterAtoms>  (236) 


>  <Gold.Version>  (236) 
5.3.0

>  <PLP.Chemscore.CHOScore>  (236) 


>  <PLP.Chemscore.Hbond>  (236) 


>  <PLP.Chemscore.Internal.Correction>  (236) 


>  <PLP.Chemscore.Metal>  (236) 


>  <PLP.Fitness>  (236) 


>  <PLP.PLP>  (236) 


>  <PLP.ligand.clash>  (236) 


>  <PLP.ligand.torsion>  (236) 


>  <PLP.part.buried>  (236) 


>  <PLP.part.hbond>  (236) 


>  <PLP.part.metal>  (236) 


>  <PLP.part.nonpolar>  (236) 


>  <PLP.part.repulsive>  (236) 


>  <Version>  (236) 


$$$$
3236|Compound_2016|Compounds_3D_F|sdf|576|dock1|1
     RDKit          3D

 21 24  0  0  0  0  0  0  0  0999 V2000
  -13.8193  -20.5347   14.3003 O   0  0  0  0  0  0  0  0  0  0  0  0
  -13.1227  -20.7691   13.1637 C   0  0  0  0  0  0  0  0  0  0  0  0
  -13.5451  -21.7576   12.2533 C   0  0  0  0  0  0  0  0  0  0  0  0
  -14.5749  -22.6215   12.2216 N   0  0  0  0  0  0  0  0  0  0  0  0
  -14.5217  -23.3343   11.1515 N   0  0  0  0  0  0  0  0  0  0  0  0
  -13.4027  -22.9550   10.3941 N   0  0  0  0  0  0  0  0  0  0  0  0
  -12.7804  -21.9557   11.0886 C   0  0  0  0  0  0  0  0  0  0  0  0
  -11.6974  -21.2119   10.8892 N   0  0  0  0  0  0  0  0  0  0  0  0
  -11.3394  -20.2949   11.7721 C   0  0  0  0  0  0  0  0  0  0  0  0
  -12.0329  -20.0700   12.8806 N   0  0  0  0  0  0  0  0  0  0  0  0
  -10.2012  -19.5379   11.5283 N   0  0  0  0  0  0  0  0  0  0  0  0
  -10.2048  -18.2149   11.7846 C   0  0  0  0  0  0  0  0  0  0  0  0
  -11.2035  -17.6847   12.2284 O   0  0  0  0  0  0  0  0  0  0  0  0
   -8.9895  -17.4060   11.5236 C   0  0  0  0  0  0  0  0  0  0  0  0
   -7.8595  -17.8261   11.0103 N   0  0  0  0  0  0  0  0  0  0  0  0
   -7.0549  -16.9284   10.9210 O   0  0  0  0  0  0  0  0  0  0  0  0
   -7.5497  -15.7678   11.3714 C   0  0  0  0  0  0  0  0  0  0  0  0
   -8.8172  -16.0161   11.7744 C   0  0  0  0  0  0  0  0  0  0  0  0
   -6.8350  -14.4411   11.4146 C   0  0  0  0  0  0  0  0  0  0  0  0
   -7.6083  -13.2406   11.9634 C   0  0  0  0  0  0  0  0  0  0  0  0
   -6.4844  -13.8717   12.7904 C   0  0  0  0  0  0  0  0  0  0  0  0
  1  2  1  0
  2  3  2  0
  2 10  1  0
  3  4  1  0
  3  7  1  0
  4  5  2  0
  5  6  1  0
  6  7  1  0
  7  8  2  0
  8  9  1  0
  9 10  2  0
  9 11  1  0
 11 12  1  0
 12 13  2  0
 12 14  1  0
 14 15  2  0
 14 18  1  0
 15 16  1  0
 16 17  1  0
 17 18  2  0
 17 19  1  0
 19 20  1  0
 19 21  1  0
 20 21  1  0
M  END
>  <Gold.Gold.Protein.RotatedWaterAtoms>  (237) 


>  <Gold.Id.Protein>  (237) 


>  <Gold.PLP.Chemscore.CHOScore>  (237) 
0.0000

>  <Gold.PLP.Chemscore.Hbond>  (237) 
5.0000

>  <Gold.PLP.Chemscore.Internal.Correction>  (237) 
0.4815

>  <Gold.PLP.Chemscore.Metal>  (237) 
0.0000

>  <Gold.PLP.Fitness>  (237) 
51.8325

>  <Gold.PLP.PLP>  (237) 
-37.1491

>  <Gold.PLP.ligand.clash>  (237) 
0.0000

>  <Gold.PLP.ligand.torsion>  (237) 
0.3991

>  <Gold.PLP.part.buried>  (237) 
-8.4193

>  <Gold.PLP.part.hbond>  (237) 
-5.5104

>  <Gold.PLP.part.metal>  (237) 
0.0000

>  <Gold.PLP.part.nonpolar>  (237) 
-23.6473

>  <Gold.PLP.part.repulsive>  (237) 
0.2589

>  <Gold.Protein.RotatedAtoms>  (237) 


>  <Gold.Protein.RotatedTorsions>  (237) 


>  <Gold.Protein.RotatedWaterAtoms>  (237) 


>  <Gold.Version>  (237) 
5.3.0

>  <PLP.Chemscore.CHOScore>  (237) 


>  <PLP.Chemscore.Hbond>  (237) 


>  <PLP.Chemscore.Internal.Correction>  (237) 


>  <PLP.Chemscore.Metal>  (237) 


>  <PLP.Fitness>  (237) 


>  <PLP.PLP>  (237) 


>  <PLP.ligand.clash>  (237) 


>  <PLP.ligand.torsion>  (237) 


>  <PLP.part.buried>  (237) 


>  <PLP.part.hbond>  (237) 


>  <PLP.part.metal>  (237) 


>  <PLP.part.nonpolar>  (237) 


>  <PLP.part.repulsive>  (237) 


>  <Version>  (237) 


$$$$
3237|Compound_2016|Compounds_3D_F|sdf|576|dock2|1
     RDKit          3D

 21 24  0  0  0  0  0  0  0  0999 V2000
  -13.6938  -20.4566   14.1495 O   0  0  0  0  0  0  0  0  0  0  0  0
  -12.9754  -20.7293   13.0352 C   0  0  0  0  0  0  0  0  0  0  0  0
  -13.3331  -21.8017   12.1947 C   0  0  0  0  0  0  0  0  0  0  0  0
  -14.3115  -22.7236   12.2193 N   0  0  0  0  0  0  0  0  0  0  0  0
  -14.2087  -23.5052   11.2022 N   0  0  0  0  0  0  0  0  0  0  0  0
  -13.1069  -23.1160   10.4248 N   0  0  0  0  0  0  0  0  0  0  0  0
  -12.5486  -22.0363   11.0501 C   0  0  0  0  0  0  0  0  0  0  0  0
  -11.5083  -21.2472   10.8035 N   0  0  0  0  0  0  0  0  0  0  0  0
  -11.2106  -20.2516   11.6214 C   0  0  0  0  0  0  0  0  0  0  0  0
  -11.9251  -19.9901   12.7084 N   0  0  0  0  0  0  0  0  0  0  0  0
  -10.1156  -19.4491   11.3300 N   0  0  0  0  0  0  0  0  0  0  0  0
  -10.1274  -18.1449   11.6689 C   0  0  0  0  0  0  0  0  0  0  0  0
  -11.0957  -17.6714   12.2288 O   0  0  0  0  0  0  0  0  0  0  0  0
   -8.9582  -17.2875   11.3570 C   0  0  0  0  0  0  0  0  0  0  0  0
   -7.9226  -17.6059   10.6201 N   0  0  0  0  0  0  0  0  0  0  0  0
   -7.1327  -16.6935   10.5517 O   0  0  0  0  0  0  0  0  0  0  0  0
   -7.5432  -15.6245   11.2468 C   0  0  0  0  0  0  0  0  0  0  0  0
   -8.7375  -15.9510   11.7925 C   0  0  0  0  0  0  0  0  0  0  0  0
   -6.8182  -14.3102   11.3881 C   0  0  0  0  0  0  0  0  0  0  0  0
   -7.4964  -13.2155   12.2138 C   0  0  0  0  0  0  0  0  0  0  0  0
   -6.2729  -13.9490   12.7709 C   0  0  0  0  0  0  0  0  0  0  0  0
  1  2  1  0
  2  3  2  0
  2 10  1  0
  3  4  1  0
  3  7  1  0
  4  5  2  0
  5  6  1  0
  6  7  1  0
  7  8  2  0
  8  9  1  0
  9 10  2  0
  9 11  1  0
 11 12  1  0
 12 13  2  0
 12 14  1  0
 14 15  2  0
 14 18  1  0
 15 16  1  0
 16 17  1  0
 17 18  2  0
 17 19  1  0
 19 20  1  0
 19 21  1  0
 20 21  1  0
M  END
>  <Gold.Gold.Protein.RotatedWaterAtoms>  (238) 


>  <Gold.Id.Protein>  (238) 


>  <Gold.PLP.Chemscore.CHOScore>  (238) 
0.0000

>  <Gold.PLP.Chemscore.Hbond>  (238) 
4.9500

>  <Gold.PLP.Chemscore.Internal.Correction>  (238) 
0.4815

>  <Gold.PLP.Chemscore.Metal>  (238) 
0.0000

>  <Gold.PLP.Fitness>  (238) 
50.8373

>  <Gold.PLP.PLP>  (238) 
-36.1180

>  <Gold.PLP.ligand.clash>  (238) 
0.0000

>  <Gold.PLP.ligand.torsion>  (238) 
0.3061

>  <Gold.PLP.part.buried>  (238) 
-8.2184

>  <Gold.PLP.part.hbond>  (238) 
-5.3668

>  <Gold.PLP.part.metal>  (238) 
0.0000

>  <Gold.PLP.part.nonpolar>  (238) 
-23.0147

>  <Gold.PLP.part.repulsive>  (238) 
0.2132

>  <Gold.Protein.RotatedAtoms>  (238) 


>  <Gold.Protein.RotatedTorsions>  (238) 


>  <Gold.Protein.RotatedWaterAtoms>  (238) 


>  <Gold.Version>  (238) 
5.3.0

>  <PLP.Chemscore.CHOScore>  (238) 


>  <PLP.Chemscore.Hbond>  (238) 


>  <PLP.Chemscore.Internal.Correction>  (238) 


>  <PLP.Chemscore.Metal>  (238) 


>  <PLP.Fitness>  (238) 


>  <PLP.PLP>  (238) 


>  <PLP.ligand.clash>  (238) 


>  <PLP.ligand.torsion>  (238) 


>  <PLP.part.buried>  (238) 


>  <PLP.part.hbond>  (238) 


>  <PLP.part.metal>  (238) 


>  <PLP.part.nonpolar>  (238) 


>  <PLP.part.repulsive>  (238) 


>  <Version>  (238) 


$$$$
3238|Compound_2016|Compounds_3D_F|sdf|576|dock3|1
     RDKit          3D

 21 24  0  0  0  0  0  0  0  0999 V2000
  -13.8830  -20.4386   14.1274 O   0  0  0  0  0  0  0  0  0  0  0  0
  -13.0850  -20.7573   13.0817 C   0  0  0  0  0  0  0  0  0  0  0  0
  -13.3875  -21.8584   12.2567 C   0  0  0  0  0  0  0  0  0  0  0  0
  -14.3730  -22.7729   12.2413 N   0  0  0  0  0  0  0  0  0  0  0  0
  -14.2005  -23.5928   11.2645 N   0  0  0  0  0  0  0  0  0  0  0  0
  -13.0398  -23.2395   10.5590 N   0  0  0  0  0  0  0  0  0  0  0  0
  -12.5209  -22.1404   11.1843 C   0  0  0  0  0  0  0  0  0  0  0  0
  -11.4581  -21.3673   10.9883 N   0  0  0  0  0  0  0  0  0  0  0  0
  -11.2144  -20.3434   11.7889 C   0  0  0  0  0  0  0  0  0  0  0  0
  -12.0066  -20.0370   12.8082 N   0  0  0  0  0  0  0  0  0  0  0  0
  -10.0935  -19.5589   11.5517 N   0  0  0  0  0  0  0  0  0  0  0  0
  -10.1374  -18.2329   11.7883 C   0  0  0  0  0  0  0  0  0  0  0  0
  -11.1573  -17.7241   12.2085 O   0  0  0  0  0  0  0  0  0  0  0  0
   -8.9407  -17.3948   11.5343 C   0  0  0  0  0  0  0  0  0  0  0  0
   -7.7915  -17.7909   11.0451 N   0  0  0  0  0  0  0  0  0  0  0  0
   -7.0104  -16.8728   10.9551 O   0  0  0  0  0  0  0  0  0  0  0  0
   -7.5440  -15.7199   11.3802 C   0  0  0  0  0  0  0  0  0  0  0  0
   -8.8105  -15.9971   11.7670 C   0  0  0  0  0  0  0  0  0  0  0  0
   -6.8666  -14.3734   11.4148 C   0  0  0  0  0  0  0  0  0  0  0  0
   -7.6968  -13.1778   11.8854 C   0  0  0  0  0  0  0  0  0  0  0  0
   -6.5997  -13.7516   12.7867 C   0  0  0  0  0  0  0  0  0  0  0  0
  1  2  1  0
  2  3  2  0
  2 10  1  0
  3  4  1  0
  3  7  1  0
  4  5  2  0
  5  6  1  0
  6  7  1  0
  7  8  2  0
  8  9  1  0
  9 10  2  0
  9 11  1  0
 11 12  1  0
 12 13  2  0
 12 14  1  0
 14 15  2  0
 14 18  1  0
 15 16  1  0
 16 17  1  0
 17 18  2  0
 17 19  1  0
 19 20  1  0
 19 21  1  0
 20 21  1  0
M  END
>  <Gold.Gold.Protein.RotatedWaterAtoms>  (239) 


>  <Gold.Id.Protein>  (239) 


>  <Gold.PLP.Chemscore.CHOScore>  (239) 
0.0000

>  <Gold.PLP.Chemscore.Hbond>  (239) 
4.9000

>  <Gold.PLP.Chemscore.Internal.Correction>  (239) 
0.4806

>  <Gold.PLP.Chemscore.Metal>  (239) 
0.0000

>  <Gold.PLP.Fitness>  (239) 
51.4474

>  <Gold.PLP.PLP>  (239) 
-36.8492

>  <Gold.PLP.ligand.clash>  (239) 
0.0000

>  <Gold.PLP.ligand.torsion>  (239) 
0.2912

>  <Gold.PLP.part.buried>  (239) 
-8.3916

>  <Gold.PLP.part.hbond>  (239) 
-5.7344

>  <Gold.PLP.part.metal>  (239) 
0.0000

>  <Gold.PLP.part.nonpolar>  (239) 
-23.2818

>  <Gold.PLP.part.repulsive>  (239) 
0.2320

>  <Gold.Protein.RotatedAtoms>  (239) 


>  <Gold.Protein.RotatedTorsions>  (239) 


>  <Gold.Protein.RotatedWaterAtoms>  (239) 


>  <Gold.Version>  (239) 
5.3.0

>  <PLP.Chemscore.CHOScore>  (239) 


>  <PLP.Chemscore.Hbond>  (239) 


>  <PLP.Chemscore.Internal.Correction>  (239) 


>  <PLP.Chemscore.Metal>  (239) 


>  <PLP.Fitness>  (239) 


>  <PLP.PLP>  (239) 


>  <PLP.ligand.clash>  (239) 


>  <PLP.ligand.torsion>  (239) 


>  <PLP.part.buried>  (239) 


>  <PLP.part.hbond>  (239) 


>  <PLP.part.metal>  (239) 


>  <PLP.part.nonpolar>  (239) 


>  <PLP.part.repulsive>  (239) 


>  <Version>  (239) 


$$$$
3239|Compound_2020|Compounds_3D_F|sdf|577|dock1|1
     RDKit          3D

 27 30  0  0  0  0  0  0  0  0999 V2000
   -7.7824  -14.6216   11.4675 N   0  0  0  0  0  0  0  0  0  0  0  0
   -8.4851  -13.5055   11.7454 C   0  0  0  0  0  0  0  0  0  0  0  0
   -9.6883  -13.5698   11.9054 O   0  0  0  0  0  0  0  0  0  0  0  0
   -7.7949  -12.2081   11.8554 C   0  0  0  0  0  0  0  0  0  0  0  0
   -6.6163  -11.9551   12.5041 C   0  0  0  0  0  0  0  0  0  0  0  0
   -6.4095  -10.5732   12.3033 C   0  0  0  0  0  0  0  0  0  0  0  0
   -7.4155  -10.1455   11.5977 N   0  0  0  0  0  0  0  0  0  0  0  0
   -8.1927  -11.0331   11.3330 O   0  0  0  0  0  0  0  0  0  0  0  0
   -8.4313  -15.8388   11.3578 C   0  0  0  0  0  0  0  0  0  0  0  0
   -7.9769  -16.8761   10.7011 N   0  0  0  0  0  0  0  0  0  0  0  0
   -8.8631  -17.9019   10.8000 C   0  0  0  0  0  0  0  0  0  0  0  0
   -9.9398  -17.4456   11.5782 C   0  0  0  0  0  0  0  0  0  0  0  0
   -9.6380  -16.1385   11.9232 N   0  0  0  0  0  0  0  0  0  0  0  0
  -11.0081  -18.2882   11.8484 C   0  0  0  0  0  0  0  0  0  0  0  0
  -11.0092  -19.5782   11.3495 C   0  0  0  0  0  0  0  0  0  0  0  0
  -12.0562  -20.4041   11.6134 O   0  0  0  0  0  0  0  0  0  0  0  0
  -12.9600  -20.6250   10.6216 C   0  0  0  0  0  0  0  0  0  0  0  0
  -13.3567  -21.9201   10.3189 C   0  0  0  0  0  0  0  0  0  0  0  0
  -12.7014  -23.2602   11.2074 Cl  0  0  0  0  0  0  0  0  0  0  0  0
  -14.2760  -22.1416    9.3093 C   0  0  0  0  0  0  0  0  0  0  0  0
  -14.7747  -23.7608    8.9295 Cl  0  0  0  0  0  0  0  0  0  0  0  0
  -14.7989  -21.0733    8.6029 C   0  0  0  0  0  0  0  0  0  0  0  0
  -14.4030  -19.7831    8.9029 C   0  0  0  0  0  0  0  0  0  0  0  0
  -13.4901  -19.5560    9.9138 C   0  0  0  0  0  0  0  0  0  0  0  0
   -9.9442  -20.0342   10.5774 C   0  0  0  0  0  0  0  0  0  0  0  0
   -9.9601  -21.6555    9.9567 Cl  0  0  0  0  0  0  0  0  0  0  0  0
   -8.8783  -19.2077   10.3016 C   0  0  0  0  0  0  0  0  0  0  0  0
  1  2  1  0
  1  9  1  0
  2  3  2  0
  2  4  1  0
  4  5  2  0
  4  8  1  0
  5  6  1  0
  6  7  2  0
  7  8  1  0
  9 10  2  0
  9 13  1  0
 10 11  1  0
 11 12  2  0
 11 27  1  0
 12 13  1  0
 12 14  1  0
 14 15  2  0
 15 16  1  0
 15 25  1  0
 16 17  1  0
 17 18  2  0
 17 24  1  0
 18 19  1  0
 18 20  1  0
 20 21  1  0
 20 22  2  0
 22 23  1  0
 23 24  2  0
 25 26  1  0
 25 27  2  0
M  END
>  <Gold.Gold.Protein.RotatedWaterAtoms>  (240) 


>  <Gold.Id.Protein>  (240) 


>  <Gold.PLP.Chemscore.CHOScore>  (240) 
1.0146

>  <Gold.PLP.Chemscore.Hbond>  (240) 
1.0000

>  <Gold.PLP.Chemscore.Internal.Correction>  (240) 
0.1206

>  <Gold.PLP.Chemscore.Metal>  (240) 
0.0000

>  <Gold.PLP.Fitness>  (240) 
58.9034

>  <Gold.PLP.PLP>  (240) 
-55.0882

>  <Gold.PLP.ligand.clash>  (240) 
0.0000

>  <Gold.PLP.ligand.torsion>  (240) 
1.1746

>  <Gold.PLP.part.buried>  (240) 
-9.8045

>  <Gold.PLP.part.hbond>  (240) 
-2.6776

>  <Gold.PLP.part.metal>  (240) 
0.0000

>  <Gold.PLP.part.nonpolar>  (240) 
-43.7558

>  <Gold.PLP.part.repulsive>  (240) 
1.4840

>  <Gold.Protein.RotatedAtoms>  (240) 


>  <Gold.Protein.RotatedTorsions>  (240) 


>  <Gold.Protein.RotatedWaterAtoms>  (240) 


>  <Gold.Version>  (240) 
5.3.0

>  <PLP.Chemscore.CHOScore>  (240) 


>  <PLP.Chemscore.Hbond>  (240) 


>  <PLP.Chemscore.Internal.Correction>  (240) 


>  <PLP.Chemscore.Metal>  (240) 


>  <PLP.Fitness>  (240) 


>  <PLP.PLP>  (240) 


>  <PLP.ligand.clash>  (240) 


>  <PLP.ligand.torsion>  (240) 


>  <PLP.part.buried>  (240) 


>  <PLP.part.hbond>  (240) 


>  <PLP.part.metal>  (240) 


>  <PLP.part.nonpolar>  (240) 


>  <PLP.part.repulsive>  (240) 


>  <Version>  (240) 


$$$$
3240|Compound_2020|Compounds_3D_F|sdf|577|dock2|1
     RDKit          3D

 27 30  0  0  0  0  0  0  0  0999 V2000
   -7.5723  -14.8856   11.6729 N   0  0  0  0  0  0  0  0  0  0  0  0
   -8.2651  -13.7460   11.8678 C   0  0  0  0  0  0  0  0  0  0  0  0
   -9.4785  -13.7769   11.9328 O   0  0  0  0  0  0  0  0  0  0  0  0
   -7.5519  -12.4634   12.0021 C   0  0  0  0  0  0  0  0  0  0  0  0
   -6.2921  -12.2705   12.5015 C   0  0  0  0  0  0  0  0  0  0  0  0
   -6.0996  -10.8754   12.4046 C   0  0  0  0  0  0  0  0  0  0  0  0
   -7.1888  -10.3849   11.8889 N   0  0  0  0  0  0  0  0  0  0  0  0
   -8.0051  -11.2452   11.6526 O   0  0  0  0  0  0  0  0  0  0  0  0
   -8.2423  -16.0890   11.5404 C   0  0  0  0  0  0  0  0  0  0  0  0
   -7.7270  -17.1853   11.0439 N   0  0  0  0  0  0  0  0  0  0  0  0
   -8.6578  -18.1755   11.0629 C   0  0  0  0  0  0  0  0  0  0  0  0
   -9.8297  -17.6319   11.6141 C   0  0  0  0  0  0  0  0  0  0  0  0
   -9.5373  -16.3113   11.9132 N   0  0  0  0  0  0  0  0  0  0  0  0
  -10.9613  -18.4214   11.7580 C   0  0  0  0  0  0  0  0  0  0  0  0
  -10.9311  -19.7449   11.3574 C   0  0  0  0  0  0  0  0  0  0  0  0
  -12.0398  -20.5190   11.4975 O   0  0  0  0  0  0  0  0  0  0  0  0
  -12.8650  -20.6512   10.4247 C   0  0  0  0  0  0  0  0  0  0  0  0
  -12.9570  -21.8686    9.7648 C   0  0  0  0  0  0  0  0  0  0  0  0
  -12.0203  -23.2255   10.3090 Cl  0  0  0  0  0  0  0  0  0  0  0  0
  -13.7971  -21.9999    8.6737 C   0  0  0  0  0  0  0  0  0  0  0  0
  -13.9148  -23.5223    7.8471 Cl  0  0  0  0  0  0  0  0  0  0  0  0
  -14.5443  -20.9189    8.2416 C   0  0  0  0  0  0  0  0  0  0  0  0
  -14.4520  -19.7054    8.8977 C   0  0  0  0  0  0  0  0  0  0  0  0
  -13.6194  -19.5706    9.9910 C   0  0  0  0  0  0  0  0  0  0  0  0
   -9.7715  -20.2876   10.8102 C   0  0  0  0  0  0  0  0  0  0  0  0
   -9.7490  -21.9501   10.3105 Cl  0  0  0  0  0  0  0  0  0  0  0  0
   -8.6422  -19.5144   10.6615 C   0  0  0  0  0  0  0  0  0  0  0  0
  1  2  1  0
  1  9  1  0
  2  3  2  0
  2  4  1  0
  4  5  2  0
  4  8  1  0
  5  6  1  0
  6  7  2  0
  7  8  1  0
  9 10  2  0
  9 13  1  0
 10 11  1  0
 11 12  2  0
 11 27  1  0
 12 13  1  0
 12 14  1  0
 14 15  2  0
 15 16  1  0
 15 25  1  0
 16 17  1  0
 17 18  2  0
 17 24  1  0
 18 19  1  0
 18 20  1  0
 20 21  1  0
 20 22  2  0
 22 23  1  0
 23 24  2  0
 25 26  1  0
 25 27  2  0
M  END
>  <Gold.Gold.Protein.RotatedWaterAtoms>  (241) 


>  <Gold.Id.Protein>  (241) 


>  <Gold.PLP.Chemscore.CHOScore>  (241) 
0.9260

>  <Gold.PLP.Chemscore.Hbond>  (241) 
0.9675

>  <Gold.PLP.Chemscore.Internal.Correction>  (241) 
0.0946

>  <Gold.PLP.Chemscore.Metal>  (241) 
0.0000

>  <Gold.PLP.Fitness>  (241) 
61.5244

>  <Gold.PLP.PLP>  (241) 
-57.4770

>  <Gold.PLP.ligand.clash>  (241) 
0.0000

>  <Gold.PLP.ligand.torsion>  (241) 
0.8638

>  <Gold.PLP.part.buried>  (241) 
-10.1796

>  <Gold.PLP.part.hbond>  (241) 
-2.0000

>  <Gold.PLP.part.metal>  (241) 
0.0000

>  <Gold.PLP.part.nonpolar>  (241) 
-46.1711

>  <Gold.PLP.part.repulsive>  (241) 
0.7215

>  <Gold.Protein.RotatedAtoms>  (241) 


>  <Gold.Protein.RotatedTorsions>  (241) 


>  <Gold.Protein.RotatedWaterAtoms>  (241) 


>  <Gold.Version>  (241) 
5.3.0

>  <PLP.Chemscore.CHOScore>  (241) 


>  <PLP.Chemscore.Hbond>  (241) 


>  <PLP.Chemscore.Internal.Correction>  (241) 


>  <PLP.Chemscore.Metal>  (241) 


>  <PLP.Fitness>  (241) 


>  <PLP.PLP>  (241) 


>  <PLP.ligand.clash>  (241) 


>  <PLP.ligand.torsion>  (241) 


>  <PLP.part.buried>  (241) 


>  <PLP.part.hbond>  (241) 


>  <PLP.part.metal>  (241) 


>  <PLP.part.nonpolar>  (241) 


>  <PLP.part.repulsive>  (241) 


>  <Version>  (241) 


$$$$
3241|Compound_2020|Compounds_3D_F|sdf|577|dock3|1
     RDKit          3D

 27 30  0  0  0  0  0  0  0  0999 V2000
   -7.6885  -15.0328   11.5378 N   0  0  0  0  0  0  0  0  0  0  0  0
   -8.2982  -13.8862   11.8985 C   0  0  0  0  0  0  0  0  0  0  0  0
   -9.4924  -13.8788   12.1244 O   0  0  0  0  0  0  0  0  0  0  0  0
   -7.5172  -12.6422   12.0189 C   0  0  0  0  0  0  0  0  0  0  0  0
   -6.2409  -12.5147   12.4969 C   0  0  0  0  0  0  0  0  0  0  0  0
   -5.9780  -11.1315   12.3946 C   0  0  0  0  0  0  0  0  0  0  0  0
   -7.0488  -10.5854   11.8965 N   0  0  0  0  0  0  0  0  0  0  0  0
   -7.9124  -11.4023   11.6751 O   0  0  0  0  0  0  0  0  0  0  0  0
   -8.4229  -16.1995   11.4185 C   0  0  0  0  0  0  0  0  0  0  0  0
   -8.0246  -17.2773   10.7911 N   0  0  0  0  0  0  0  0  0  0  0  0
   -8.9885  -18.2323   10.8692 C   0  0  0  0  0  0  0  0  0  0  0  0
  -10.0550  -17.6855   11.6016 C   0  0  0  0  0  0  0  0  0  0  0  0
   -9.6682  -16.3997   11.9423 N   0  0  0  0  0  0  0  0  0  0  0  0
  -11.1929  -18.4417   11.8420 C   0  0  0  0  0  0  0  0  0  0  0  0
  -11.2732  -19.7351   11.3585 C   0  0  0  0  0  0  0  0  0  0  0  0
  -12.3883  -20.4764   11.5931 O   0  0  0  0  0  0  0  0  0  0  0  0
  -13.1862  -20.7808   10.5348 C   0  0  0  0  0  0  0  0  0  0  0  0
  -13.5553  -22.0977   10.2990 C   0  0  0  0  0  0  0  0  0  0  0  0
  -13.0007  -23.3586   11.3561 Cl  0  0  0  0  0  0  0  0  0  0  0  0
  -14.3667  -22.4041    9.2215 C   0  0  0  0  0  0  0  0  0  0  0  0
  -14.8308  -24.0508    8.9251 Cl  0  0  0  0  0  0  0  0  0  0  0  0
  -14.8095  -21.3989    8.3806 C   0  0  0  0  0  0  0  0  0  0  0  0
  -14.4409  -20.0869    8.6141 C   0  0  0  0  0  0  0  0  0  0  0  0
  -13.6360  -19.7748    9.6918 C   0  0  0  0  0  0  0  0  0  0  0  0
  -10.2185  -20.2807   10.6317 C   0  0  0  0  0  0  0  0  0  0  0  0
  -10.3341  -21.9051   10.0299 Cl  0  0  0  0  0  0  0  0  0  0  0  0
   -9.0841  -19.5404   10.3859 C   0  0  0  0  0  0  0  0  0  0  0  0
  1  2  1  0
  1  9  1  0
  2  3  2  0
  2  4  1  0
  4  5  2  0
  4  8  1  0
  5  6  1  0
  6  7  2  0
  7  8  1  0
  9 10  2  0
  9 13  1  0
 10 11  1  0
 11 12  2  0
 11 27  1  0
 12 13  1  0
 12 14  1  0
 14 15  2  0
 15 16  1  0
 15 25  1  0
 16 17  1  0
 17 18  2  0
 17 24  1  0
 18 19  1  0
 18 20  1  0
 20 21  1  0
 20 22  2  0
 22 23  1  0
 23 24  2  0
 25 26  1  0
 25 27  2  0
M  END
>  <Gold.Gold.Protein.RotatedWaterAtoms>  (242) 


>  <Gold.Id.Protein>  (242) 


>  <Gold.PLP.Chemscore.CHOScore>  (242) 
1.0041

>  <Gold.PLP.Chemscore.Hbond>  (242) 
0.9913

>  <Gold.PLP.Chemscore.Internal.Correction>  (242) 
0.0946

>  <Gold.PLP.Chemscore.Metal>  (242) 
0.0000

>  <Gold.PLP.Fitness>  (242) 
59.1389

>  <Gold.PLP.PLP>  (242) 
-54.5613

>  <Gold.PLP.ligand.clash>  (242) 
0.0000

>  <Gold.PLP.ligand.torsion>  (242) 
0.7515

>  <Gold.PLP.part.buried>  (242) 
-9.8522

>  <Gold.PLP.part.hbond>  (242) 
-2.0000

>  <Gold.PLP.part.metal>  (242) 
0.0000

>  <Gold.PLP.part.nonpolar>  (242) 
-43.8037

>  <Gold.PLP.part.repulsive>  (242) 
0.7416

>  <Gold.Protein.RotatedAtoms>  (242) 


>  <Gold.Protein.RotatedTorsions>  (242) 


>  <Gold.Protein.RotatedWaterAtoms>  (242) 


>  <Gold.Version>  (242) 
5.3.0

>  <PLP.Chemscore.CHOScore>  (242) 


>  <PLP.Chemscore.Hbond>  (242) 


>  <PLP.Chemscore.Internal.Correction>  (242) 


>  <PLP.Chemscore.Metal>  (242) 


>  <PLP.Fitness>  (242) 


>  <PLP.PLP>  (242) 


>  <PLP.ligand.clash>  (242) 


>  <PLP.ligand.torsion>  (242) 


>  <PLP.part.buried>  (242) 


>  <PLP.part.hbond>  (242) 


>  <PLP.part.metal>  (242) 


>  <PLP.part.nonpolar>  (242) 


>  <PLP.part.repulsive>  (242) 


>  <Version>  (242) 


$$$$
3242|Compound_2024|Compounds_3D_F|sdf|578|dock1|1
     RDKit          3D

 17 18  0  0  0  0  0  0  0  0999 V2000
   -8.1084  -15.3072   12.1665 N   0  0  0  0  0  0  0  0  0  0  0  0
   -8.4262  -13.9994   12.0896 C   0  0  0  0  0  0  0  0  0  0  0  0
   -9.5850  -13.6635   11.9449 O   0  0  0  0  0  0  0  0  0  0  0  0
   -7.3674  -12.9769   12.1812 C   0  0  0  0  0  0  0  0  0  0  0  0
   -6.0685  -13.1709   12.5636 C   0  0  0  0  0  0  0  0  0  0  0  0
   -5.4943  -11.8827   12.4765 C   0  0  0  0  0  0  0  0  0  0  0  0
   -6.4387  -11.0812   12.0760 N   0  0  0  0  0  0  0  0  0  0  0  0
   -7.4833  -11.6657   11.8999 O   0  0  0  0  0  0  0  0  0  0  0  0
   -9.1021  -16.2679   12.0754 C   0  0  0  0  0  0  0  0  0  0  0  0
  -10.3361  -16.1518   12.5002 N   0  0  0  0  0  0  0  0  0  0  0  0
  -10.9776  -17.2390   12.2492 N   0  0  0  0  0  0  0  0  0  0  0  0
  -10.1838  -18.0852   11.6582 C   0  0  0  0  0  0  0  0  0  0  0  0
   -8.9821  -17.4918   11.5277 O   0  0  0  0  0  0  0  0  0  0  0  0
  -10.5461  -19.4733   11.1976 C   0  0  0  0  0  0  0  0  0  0  0  0
  -11.0098  -20.2196   12.2866 F   0  0  0  0  0  0  0  0  0  0  0  0
  -11.5480  -19.3956   10.2249 F   0  0  0  0  0  0  0  0  0  0  0  0
   -9.4155  -20.0937   10.6553 F   0  0  0  0  0  0  0  0  0  0  0  0
  1  2  1  0
  1  9  1  0
  2  3  2  0
  2  4  1  0
  4  5  2  0
  4  8  1  0
  5  6  1  0
  6  7  2  0
  7  8  1  0
  9 10  2  0
  9 13  1  0
 10 11  1  0
 11 12  2  0
 12 13  1  0
 12 14  1  0
 14 15  1  0
 14 16  1  0
 14 17  1  0
M  END
>  <Gold.Gold.Protein.RotatedWaterAtoms>  (243) 


>  <Gold.Id.Protein>  (243) 


>  <Gold.PLP.Chemscore.CHOScore>  (243) 
0.9857

>  <Gold.PLP.Chemscore.Hbond>  (243) 
1.8613

>  <Gold.PLP.Chemscore.Internal.Correction>  (243) 
0.0046

>  <Gold.PLP.Chemscore.Metal>  (243) 
0.0000

>  <Gold.PLP.Fitness>  (243) 
47.6580

>  <Gold.PLP.PLP>  (243) 
-39.7251

>  <Gold.PLP.ligand.clash>  (243) 
0.0000

>  <Gold.PLP.ligand.torsion>  (243) 
0.3062

>  <Gold.PLP.part.buried>  (243) 
-9.2580

>  <Gold.PLP.part.hbond>  (243) 
-3.4928

>  <Gold.PLP.part.metal>  (243) 
0.0000

>  <Gold.PLP.part.nonpolar>  (243) 
-28.3564

>  <Gold.PLP.part.repulsive>  (243) 
0.7803

>  <Gold.Protein.RotatedAtoms>  (243) 


>  <Gold.Protein.RotatedTorsions>  (243) 


>  <Gold.Protein.RotatedWaterAtoms>  (243) 


>  <Gold.Version>  (243) 
5.3.0

>  <PLP.Chemscore.CHOScore>  (243) 


>  <PLP.Chemscore.Hbond>  (243) 


>  <PLP.Chemscore.Internal.Correction>  (243) 


>  <PLP.Chemscore.Metal>  (243) 


>  <PLP.Fitness>  (243) 


>  <PLP.PLP>  (243) 


>  <PLP.ligand.clash>  (243) 


>  <PLP.ligand.torsion>  (243) 


>  <PLP.part.buried>  (243) 


>  <PLP.part.hbond>  (243) 


>  <PLP.part.metal>  (243) 


>  <PLP.part.nonpolar>  (243) 


>  <PLP.part.repulsive>  (243) 


>  <Version>  (243) 


$$$$
3243|Compound_2024|Compounds_3D_F|sdf|578|dock2|1
     RDKit          3D

 17 18  0  0  0  0  0  0  0  0999 V2000
   -8.4194  -15.0007   11.9868 N   0  0  0  0  0  0  0  0  0  0  0  0
   -8.8868  -13.7401   12.0842 C   0  0  0  0  0  0  0  0  0  0  0  0
  -10.0831  -13.5399   12.1578 O   0  0  0  0  0  0  0  0  0  0  0  0
   -7.9461  -12.6044   12.1014 C   0  0  0  0  0  0  0  0  0  0  0  0
   -8.1828  -11.3343   11.6524 C   0  0  0  0  0  0  0  0  0  0  0  0
   -6.9682  -10.6560   11.9000 C   0  0  0  0  0  0  0  0  0  0  0  0
   -6.1616  -11.5235   12.4402 N   0  0  0  0  0  0  0  0  0  0  0  0
   -6.6832  -12.6078   12.5675 O   0  0  0  0  0  0  0  0  0  0  0  0
   -9.3030  -16.0673   11.9656 C   0  0  0  0  0  0  0  0  0  0  0  0
  -10.4954  -16.0990   12.5074 N   0  0  0  0  0  0  0  0  0  0  0  0
  -11.0319  -17.2487   12.2906 N   0  0  0  0  0  0  0  0  0  0  0  0
  -10.2087  -17.9901   11.6064 C   0  0  0  0  0  0  0  0  0  0  0  0
   -9.0995  -17.2614   11.3783 O   0  0  0  0  0  0  0  0  0  0  0  0
  -10.4555  -19.4037   11.1471 C   0  0  0  0  0  0  0  0  0  0  0  0
  -11.5222  -19.4202   10.2417 F   0  0  0  0  0  0  0  0  0  0  0  0
   -9.3061  -19.8989   10.5228 F   0  0  0  0  0  0  0  0  0  0  0  0
  -10.7691  -20.2037   12.2510 F   0  0  0  0  0  0  0  0  0  0  0  0
  1  2  1  0
  1  9  1  0
  2  3  2  0
  2  4  1  0
  4  5  2  0
  4  8  1  0
  5  6  1  0
  6  7  2  0
  7  8  1  0
  9 10  2  0
  9 13  1  0
 10 11  1  0
 11 12  2  0
 12 13  1  0
 12 14  1  0
 14 15  1  0
 14 16  1  0
 14 17  1  0
M  END
>  <Gold.Gold.Protein.RotatedWaterAtoms>  (244) 


>  <Gold.Id.Protein>  (244) 


>  <Gold.PLP.Chemscore.CHOScore>  (244) 
0.0000

>  <Gold.PLP.Chemscore.Hbond>  (244) 
2.1603

>  <Gold.PLP.Chemscore.Internal.Correction>  (244) 
0.0017

>  <Gold.PLP.Chemscore.Metal>  (244) 
0.0000

>  <Gold.PLP.Fitness>  (244) 
43.1515

>  <Gold.PLP.PLP>  (244) 
-37.8246

>  <Gold.PLP.ligand.clash>  (244) 
0.0000

>  <Gold.PLP.ligand.torsion>  (244) 
0.5779

>  <Gold.PLP.part.buried>  (244) 
-3.9098

>  <Gold.PLP.part.hbond>  (244) 
-3.8271

>  <Gold.PLP.part.metal>  (244) 
0.0000

>  <Gold.PLP.part.nonpolar>  (244) 
-29.2681

>  <Gold.PLP.part.repulsive>  (244) 
0.8678

>  <Gold.Protein.RotatedAtoms>  (244) 


>  <Gold.Protein.RotatedTorsions>  (244) 


>  <Gold.Protein.RotatedWaterAtoms>  (244) 


>  <Gold.Version>  (244) 
5.3.0

>  <PLP.Chemscore.CHOScore>  (244) 


>  <PLP.Chemscore.Hbond>  (244) 


>  <PLP.Chemscore.Internal.Correction>  (244) 


>  <PLP.Chemscore.Metal>  (244) 


>  <PLP.Fitness>  (244) 


>  <PLP.PLP>  (244) 


>  <PLP.ligand.clash>  (244) 


>  <PLP.ligand.torsion>  (244) 


>  <PLP.part.buried>  (244) 


>  <PLP.part.hbond>  (244) 


>  <PLP.part.metal>  (244) 


>  <PLP.part.nonpolar>  (244) 


>  <PLP.part.repulsive>  (244) 


>  <Version>  (244) 


$$$$
3244|Compound_2024|Compounds_3D_F|sdf|578|dock3|1
     RDKit          3D

 17 18  0  0  0  0  0  0  0  0999 V2000
   -8.6446  -15.2109   11.7783 N   0  0  0  0  0  0  0  0  0  0  0  0
   -9.0083  -13.9903   12.2196 C   0  0  0  0  0  0  0  0  0  0  0  0
  -10.1035  -13.8269   12.7201 O   0  0  0  0  0  0  0  0  0  0  0  0
   -8.0769  -12.8536   12.0950 C   0  0  0  0  0  0  0  0  0  0  0  0
   -6.7700  -12.8142   12.4967 C   0  0  0  0  0  0  0  0  0  0  0  0
   -6.3481  -11.5115   12.1481 C   0  0  0  0  0  0  0  0  0  0  0  0
   -7.3733  -10.9220   11.6037 N   0  0  0  0  0  0  0  0  0  0  0  0
   -8.3403  -11.6478   11.5577 O   0  0  0  0  0  0  0  0  0  0  0  0
   -9.5211  -16.2776   11.8907 C   0  0  0  0  0  0  0  0  0  0  0  0
  -10.6816  -16.2686   12.4988 N   0  0  0  0  0  0  0  0  0  0  0  0
  -11.2219  -17.4330   12.4039 N   0  0  0  0  0  0  0  0  0  0  0  0
  -10.4329  -18.2247   11.7359 C   0  0  0  0  0  0  0  0  0  0  0  0
   -9.3427  -17.5143   11.3896 O   0  0  0  0  0  0  0  0  0  0  0  0
  -10.6955  -19.6709   11.4045 C   0  0  0  0  0  0  0  0  0  0  0  0
  -10.9419  -20.3821   12.5840 F   0  0  0  0  0  0  0  0  0  0  0  0
  -11.8093  -19.7622   10.5636 F   0  0  0  0  0  0  0  0  0  0  0  0
   -9.5777  -20.2111   10.7597 F   0  0  0  0  0  0  0  0  0  0  0  0
  1  2  1  0
  1  9  1  0
  2  3  2  0
  2  4  1  0
  4  5  2  0
  4  8  1  0
  5  6  1  0
  6  7  2  0
  7  8  1  0
  9 10  2  0
  9 13  1  0
 10 11  1  0
 11 12  2  0
 12 13  1  0
 12 14  1  0
 14 15  1  0
 14 16  1  0
 14 17  1  0
M  END
>  <Gold.Gold.Protein.RotatedWaterAtoms>  (245) 


>  <Gold.Id.Protein>  (245) 


>  <Gold.PLP.Chemscore.CHOScore>  (245) 
0.0000

>  <Gold.PLP.Chemscore.Hbond>  (245) 
2.3668

>  <Gold.PLP.Chemscore.Internal.Correction>  (245) 
0.0017

>  <Gold.PLP.Chemscore.Metal>  (245) 
0.0000

>  <Gold.PLP.Fitness>  (245) 
41.5472

>  <Gold.PLP.PLP>  (245) 
-36.3942

>  <Gold.PLP.ligand.clash>  (245) 
0.0000

>  <Gold.PLP.ligand.torsion>  (245) 
0.9745

>  <Gold.PLP.part.buried>  (245) 
-3.2066

>  <Gold.PLP.part.hbond>  (245) 
-5.2493

>  <Gold.PLP.part.metal>  (245) 
0.0000

>  <Gold.PLP.part.nonpolar>  (245) 
-28.2886

>  <Gold.PLP.part.repulsive>  (245) 
1.1417

>  <Gold.Protein.RotatedAtoms>  (245) 


>  <Gold.Protein.RotatedTorsions>  (245) 


>  <Gold.Protein.RotatedWaterAtoms>  (245) 


>  <Gold.Version>  (245) 
5.3.0

>  <PLP.Chemscore.CHOScore>  (245) 


>  <PLP.Chemscore.Hbond>  (245) 


>  <PLP.Chemscore.Internal.Correction>  (245) 


>  <PLP.Chemscore.Metal>  (245) 


>  <PLP.Fitness>  (245) 


>  <PLP.PLP>  (245) 


>  <PLP.ligand.clash>  (245) 


>  <PLP.ligand.torsion>  (245) 


>  <PLP.part.buried>  (245) 


>  <PLP.part.hbond>  (245) 


>  <PLP.part.metal>  (245) 


>  <PLP.part.nonpolar>  (245) 


>  <PLP.part.repulsive>  (245) 


>  <Version>  (245) 


$$$$
3245|Compound_2026|Compounds_3D_F|sdf|579|dock1|1
     RDKit          3D

 17 18  0  0  0  0  0  0  0  0999 V2000
   -8.7730  -14.8310   11.9971 N   0  0  0  0  0  0  0  0  0  0  0  0
   -7.4734  -14.7708   12.3503 C   0  0  0  0  0  0  0  0  0  0  0  0
   -6.8846  -15.7832   12.6742 O   0  0  0  0  0  0  0  0  0  0  0  0
   -6.7668  -13.4763   12.3432 C   0  0  0  0  0  0  0  0  0  0  0  0
   -5.4593  -13.2509   12.6793 C   0  0  0  0  0  0  0  0  0  0  0  0
   -5.2998  -11.8589   12.5007 C   0  0  0  0  0  0  0  0  0  0  0  0
   -6.4503  -11.4009   12.0989 N   0  0  0  0  0  0  0  0  0  0  0  0
   -7.2759  -12.2784   11.9994 O   0  0  0  0  0  0  0  0  0  0  0  0
   -9.4406  -16.0497   12.0085 C   0  0  0  0  0  0  0  0  0  0  0  0
  -10.6310  -16.3653   12.4990 N   0  0  0  0  0  0  0  0  0  0  0  0
  -11.0929  -17.5359   12.4222 N   0  0  0  0  0  0  0  0  0  0  0  0
  -10.4240  -18.5182   11.8522 C   0  0  0  0  0  0  0  0  0  0  0  0
   -8.9436  -17.6414   11.3574 S   0  0  0  0  0  0  0  0  0  0  0  0
  -10.8005  -19.9652   11.6655 C   0  0  0  0  0  0  0  0  0  0  0  0
   -9.7374  -20.6507   11.0661 F   0  0  0  0  0  0  0  0  0  0  0  0
  -11.0812  -20.5383   12.9110 F   0  0  0  0  0  0  0  0  0  0  0  0
  -11.9319  -20.0515   10.8469 F   0  0  0  0  0  0  0  0  0  0  0  0
  1  2  1  0
  1  9  1  0
  2  3  2  0
  2  4  1  0
  4  5  2  0
  4  8  1  0
  5  6  1  0
  6  7  2  0
  7  8  1  0
  9 10  2  0
  9 13  1  0
 10 11  1  0
 11 12  2  0
 12 13  1  0
 12 14  1  0
 14 15  1  0
 14 16  1  0
 14 17  1  0
M  END
>  <Gold.Gold.Protein.RotatedWaterAtoms>  (246) 


>  <Gold.Id.Protein>  (246) 


>  <Gold.PLP.Chemscore.CHOScore>  (246) 
1.0000

>  <Gold.PLP.Chemscore.Hbond>  (246) 
1.7636

>  <Gold.PLP.Chemscore.Internal.Correction>  (246) 
0.0024

>  <Gold.PLP.Chemscore.Metal>  (246) 
0.0000

>  <Gold.PLP.Fitness>  (246) 
43.5747

>  <Gold.PLP.PLP>  (246) 
-36.1386

>  <Gold.PLP.ligand.clash>  (246) 
0.0000

>  <Gold.PLP.ligand.torsion>  (246) 
0.4286

>  <Gold.PLP.part.buried>  (246) 
-4.3060

>  <Gold.PLP.part.hbond>  (246) 
-3.4856

>  <Gold.PLP.part.metal>  (246) 
0.0000

>  <Gold.PLP.part.nonpolar>  (246) 
-29.7048

>  <Gold.PLP.part.repulsive>  (246) 
0.6521

>  <Gold.Protein.RotatedAtoms>  (246) 


>  <Gold.Protein.RotatedTorsions>  (246) 


>  <Gold.Protein.RotatedWaterAtoms>  (246) 


>  <Gold.Version>  (246) 
5.3.0

>  <PLP.Chemscore.CHOScore>  (246) 


>  <PLP.Chemscore.Hbond>  (246) 


>  <PLP.Chemscore.Internal.Correction>  (246) 


>  <PLP.Chemscore.Metal>  (246) 


>  <PLP.Fitness>  (246) 


>  <PLP.PLP>  (246) 


>  <PLP.ligand.clash>  (246) 


>  <PLP.ligand.torsion>  (246) 


>  <PLP.part.buried>  (246) 


>  <PLP.part.hbond>  (246) 


>  <PLP.part.metal>  (246) 


>  <PLP.part.nonpolar>  (246) 


>  <PLP.part.repulsive>  (246) 


>  <Version>  (246) 


$$$$
3246|Compound_2026|Compounds_3D_F|sdf|579|dock2|1
     RDKit          3D

 17 18  0  0  0  0  0  0  0  0999 V2000
   -8.1099  -15.3091   12.1159 N   0  0  0  0  0  0  0  0  0  0  0  0
   -8.4607  -14.0085   12.1663 C   0  0  0  0  0  0  0  0  0  0  0  0
   -9.6348  -13.6957   12.1633 O   0  0  0  0  0  0  0  0  0  0  0  0
   -7.4193  -12.9660   12.2253 C   0  0  0  0  0  0  0  0  0  0  0  0
   -6.1156  -13.1262   12.6103 C   0  0  0  0  0  0  0  0  0  0  0  0
   -5.5645  -11.8319   12.4838 C   0  0  0  0  0  0  0  0  0  0  0  0
   -6.5230  -11.0588   12.0614 N   0  0  0  0  0  0  0  0  0  0  0  0
   -7.5572  -11.6654   11.9061 O   0  0  0  0  0  0  0  0  0  0  0  0
   -9.0908  -16.2917   12.0552 C   0  0  0  0  0  0  0  0  0  0  0  0
  -10.3471  -16.2695   12.4776 N   0  0  0  0  0  0  0  0  0  0  0  0
  -11.1125  -17.2620   12.3402 N   0  0  0  0  0  0  0  0  0  0  0  0
  -10.7141  -18.3819   11.7709 C   0  0  0  0  0  0  0  0  0  0  0  0
   -9.0228  -17.9467   11.3766 S   0  0  0  0  0  0  0  0  0  0  0  0
  -11.4687  -19.6616   11.5189 C   0  0  0  0  0  0  0  0  0  0  0  0
  -12.7720  -19.5406   12.0152 F   0  0  0  0  0  0  0  0  0  0  0  0
  -11.5155  -19.9119   10.1428 F   0  0  0  0  0  0  0  0  0  0  0  0
  -10.8205  -20.7207   12.1637 F   0  0  0  0  0  0  0  0  0  0  0  0
  1  2  1  0
  1  9  1  0
  2  3  2  0
  2  4  1  0
  4  5  2  0
  4  8  1  0
  5  6  1  0
  6  7  2  0
  7  8  1  0
  9 10  2  0
  9 13  1  0
 10 11  1  0
 11 12  2  0
 12 13  1  0
 12 14  1  0
 14 15  1  0
 14 16  1  0
 14 17  1  0
M  END
>  <Gold.Gold.Protein.RotatedWaterAtoms>  (247) 


>  <Gold.Id.Protein>  (247) 


>  <Gold.PLP.Chemscore.CHOScore>  (247) 
0.9999

>  <Gold.PLP.Chemscore.Hbond>  (247) 
2.0000

>  <Gold.PLP.Chemscore.Internal.Correction>  (247) 
0.0020

>  <Gold.PLP.Chemscore.Metal>  (247) 
0.0000

>  <Gold.PLP.Fitness>  (247) 
49.6023

>  <Gold.PLP.PLP>  (247) 
-41.2533

>  <Gold.PLP.ligand.clash>  (247) 
0.0000

>  <Gold.PLP.ligand.torsion>  (247) 
0.3263

>  <Gold.PLP.part.buried>  (247) 
-8.6857

>  <Gold.PLP.part.hbond>  (247) 
-3.6503

>  <Gold.PLP.part.metal>  (247) 
0.0000

>  <Gold.PLP.part.nonpolar>  (247) 
-30.0309

>  <Gold.PLP.part.repulsive>  (247) 
0.7398

>  <Gold.Protein.RotatedAtoms>  (247) 


>  <Gold.Protein.RotatedTorsions>  (247) 


>  <Gold.Protein.RotatedWaterAtoms>  (247) 


>  <Gold.Version>  (247) 
5.3.0

>  <PLP.Chemscore.CHOScore>  (247) 


>  <PLP.Chemscore.Hbond>  (247) 


>  <PLP.Chemscore.Internal.Correction>  (247) 


>  <PLP.Chemscore.Metal>  (247) 


>  <PLP.Fitness>  (247) 


>  <PLP.PLP>  (247) 


>  <PLP.ligand.clash>  (247) 


>  <PLP.ligand.torsion>  (247) 


>  <PLP.part.buried>  (247) 


>  <PLP.part.hbond>  (247) 


>  <PLP.part.metal>  (247) 


>  <PLP.part.nonpolar>  (247) 


>  <PLP.part.repulsive>  (247) 


>  <Version>  (247) 


$$$$
3247|Compound_2026|Compounds_3D_F|sdf|579|dock3|1
     RDKit          3D

 17 18  0  0  0  0  0  0  0  0999 V2000
   -8.3382  -15.1981   12.0798 N   0  0  0  0  0  0  0  0  0  0  0  0
   -8.8039  -13.9351   12.0075 C   0  0  0  0  0  0  0  0  0  0  0  0
   -9.9979  -13.7329   11.9080 O   0  0  0  0  0  0  0  0  0  0  0  0
   -7.8639  -12.7994   12.0493 C   0  0  0  0  0  0  0  0  0  0  0  0
   -8.1085  -11.5139   11.6480 C   0  0  0  0  0  0  0  0  0  0  0  0
   -6.8910  -10.8439   11.9001 C   0  0  0  0  0  0  0  0  0  0  0  0
   -6.0757  -11.7282   12.3982 N   0  0  0  0  0  0  0  0  0  0  0  0
   -6.5938  -12.8162   12.4950 O   0  0  0  0  0  0  0  0  0  0  0  0
   -9.2230  -16.2687   12.0353 C   0  0  0  0  0  0  0  0  0  0  0  0
  -10.4965  -16.3380   12.3970 N   0  0  0  0  0  0  0  0  0  0  0  0
  -11.1622  -17.4030   12.2868 N   0  0  0  0  0  0  0  0  0  0  0  0
  -10.6365  -18.5126   11.8076 C   0  0  0  0  0  0  0  0  0  0  0  0
   -8.9727  -17.9471   11.4654 S   0  0  0  0  0  0  0  0  0  0  0  0
  -11.2600  -19.8689   11.6015 C   0  0  0  0  0  0  0  0  0  0  0  0
  -12.3187  -19.7627   10.6920 F   0  0  0  0  0  0  0  0  0  0  0  0
  -10.2987  -20.7519   11.0967 F   0  0  0  0  0  0  0  0  0  0  0  0
  -11.7412  -20.3521   12.8232 F   0  0  0  0  0  0  0  0  0  0  0  0
  1  2  1  0
  1  9  1  0
  2  3  2  0
  2  4  1  0
  4  5  2  0
  4  8  1  0
  5  6  1  0
  6  7  2  0
  7  8  1  0
  9 10  2  0
  9 13  1  0
 10 11  1  0
 11 12  2  0
 12 13  1  0
 12 14  1  0
 14 15  1  0
 14 16  1  0
 14 17  1  0
M  END
>  <Gold.Gold.Protein.RotatedWaterAtoms>  (248) 


>  <Gold.Id.Protein>  (248) 


>  <Gold.PLP.Chemscore.CHOScore>  (248) 
0.0000

>  <Gold.PLP.Chemscore.Hbond>  (248) 
2.0000

>  <Gold.PLP.Chemscore.Internal.Correction>  (248) 
0.0020

>  <Gold.PLP.Chemscore.Metal>  (248) 
0.0000

>  <Gold.PLP.Fitness>  (248) 
45.4844

>  <Gold.PLP.PLP>  (248) 
-40.1215

>  <Gold.PLP.ligand.clash>  (248) 
0.0000

>  <Gold.PLP.ligand.torsion>  (248) 
0.3196

>  <Gold.PLP.part.buried>  (248) 
-6.5822

>  <Gold.PLP.part.hbond>  (248) 
-3.2271

>  <Gold.PLP.part.metal>  (248) 
0.0000

>  <Gold.PLP.part.nonpolar>  (248) 
-29.9424

>  <Gold.PLP.part.repulsive>  (248) 
0.8246

>  <Gold.Protein.RotatedAtoms>  (248) 


>  <Gold.Protein.RotatedTorsions>  (248) 


>  <Gold.Protein.RotatedWaterAtoms>  (248) 


>  <Gold.Version>  (248) 
5.3.0

>  <PLP.Chemscore.CHOScore>  (248) 


>  <PLP.Chemscore.Hbond>  (248) 


>  <PLP.Chemscore.Internal.Correction>  (248) 


>  <PLP.Chemscore.Metal>  (248) 


>  <PLP.Fitness>  (248) 


>  <PLP.PLP>  (248) 


>  <PLP.ligand.clash>  (248) 


>  <PLP.ligand.torsion>  (248) 


>  <PLP.part.buried>  (248) 


>  <PLP.part.hbond>  (248) 


>  <PLP.part.metal>  (248) 


>  <PLP.part.nonpolar>  (248) 


>  <PLP.part.repulsive>  (248) 


>  <Version>  (248) 


$$$$
3248|Compound_187|Compounds_3D_F|sdf|57|dock10|1
     RDKit          3D

 19 20  0  0  0  0  0  0  0  0999 V2000
   -8.6014  -17.2992   10.9434 N   0  0  0  0  0  0  0  0  0  0  0  0
   -8.8001  -16.1759   11.6615 C   0  0  0  0  0  0  0  0  0  0  0  0
   -9.9240  -15.8634   12.0018 O   0  0  0  0  0  0  0  0  0  0  0  0
   -7.6507  -15.3255   12.0343 C   0  0  0  0  0  0  0  0  0  0  0  0
   -7.8358  -13.9609   12.2698 C   0  0  0  0  0  0  0  0  0  0  0  0
   -9.4171  -13.2590   12.1263 Cl  0  0  0  0  0  0  0  0  0  0  0  0
   -6.7560  -13.1716   12.6181 C   0  0  0  0  0  0  0  0  0  0  0  0
   -5.4970  -13.7302   12.7323 C   0  0  0  0  0  0  0  0  0  0  0  0
   -5.3072  -15.0810   12.5006 C   0  0  0  0  0  0  0  0  0  0  0  0
   -6.3763  -15.8822   12.1580 C   0  0  0  0  0  0  0  0  0  0  0  0
   -9.6793  -18.0952   10.5887 C   0  0  0  0  0  0  0  0  0  0  0  0
   -9.6233  -19.3328   10.1621 N   0  0  0  0  0  0  0  0  0  0  0  0
  -10.8147  -19.7579    9.9298 N   0  0  0  0  0  0  0  0  0  0  0  0
  -11.6720  -18.8149   10.1968 C   0  0  0  0  0  0  0  0  0  0  0  0
  -10.9773  -17.7438   10.6252 O   0  0  0  0  0  0  0  0  0  0  0  0
  -13.1693  -18.9087   10.0583 C   0  0  0  0  0  0  0  0  0  0  0  0
  -13.6223  -17.9063    9.1948 F   0  0  0  0  0  0  0  0  0  0  0  0
  -13.5126  -20.1617    9.5389 F   0  0  0  0  0  0  0  0  0  0  0  0
  -13.7639  -18.7458   11.3143 F   0  0  0  0  0  0  0  0  0  0  0  0
  1  2  1  0
  1 11  1  0
  2  3  2  0
  2  4  1  0
  4  5  2  0
  4 10  1  0
  5  6  1  0
  5  7  1  0
  7  8  2  0
  8  9  1  0
  9 10  2  0
 11 12  2  0
 11 15  1  0
 12 13  1  0
 13 14  2  0
 14 15  1  0
 14 16  1  0
 16 17  1  0
 16 18  1  0
 16 19  1  0
M  END
>  <Gold.Gold.Protein.RotatedWaterAtoms>  (249) 


>  <Gold.Id.Protein>  (249) 


>  <Gold.PLP.Chemscore.CHOScore>  (249) 
0.0000

>  <Gold.PLP.Chemscore.Hbond>  (249) 
1.0000

>  <Gold.PLP.Chemscore.Internal.Correction>  (249) 
0.0003

>  <Gold.PLP.Chemscore.Metal>  (249) 
0.0000

>  <Gold.PLP.Fitness>  (249) 
53.9057

>  <Gold.PLP.PLP>  (249) 
-51.6407

>  <Gold.PLP.ligand.clash>  (249) 
0.0000

>  <Gold.PLP.ligand.torsion>  (249) 
0.3677

>  <Gold.PLP.part.buried>  (249) 
-9.0274

>  <Gold.PLP.part.hbond>  (249) 
-1.1758

>  <Gold.PLP.part.metal>  (249) 
0.0000

>  <Gold.PLP.part.nonpolar>  (249) 
-41.3200

>  <Gold.PLP.part.repulsive>  (249) 
0.1017

>  <Gold.Protein.RotatedAtoms>  (249) 


>  <Gold.Protein.RotatedTorsions>  (249) 


>  <Gold.Protein.RotatedWaterAtoms>  (249) 


>  <Gold.Version>  (249) 
5.3.0

>  <PLP.Chemscore.CHOScore>  (249) 


>  <PLP.Chemscore.Hbond>  (249) 


>  <PLP.Chemscore.Internal.Correction>  (249) 


>  <PLP.Chemscore.Metal>  (249) 


>  <PLP.Fitness>  (249) 


>  <PLP.PLP>  (249) 


>  <PLP.ligand.clash>  (249) 


>  <PLP.ligand.torsion>  (249) 


>  <PLP.part.buried>  (249) 


>  <PLP.part.hbond>  (249) 


>  <PLP.part.metal>  (249) 


>  <PLP.part.nonpolar>  (249) 


>  <PLP.part.repulsive>  (249) 


>  <Version>  (249) 


$$$$
3249|Compound_2029|Compounds_3D_F|sdf|580|dock1|1
     RDKit          3D

 19 20  0  0  0  0  0  0  0  0999 V2000
   -8.0856  -13.6822   12.1438 O   0  0  0  0  0  0  0  0  0  0  0  0
   -8.7011  -14.7726   11.6477 C   0  0  0  0  0  0  0  0  0  0  0  0
   -9.7047  -15.1992   12.1829 O   0  0  0  0  0  0  0  0  0  0  0  0
   -8.1534  -15.4514   10.4526 C   0  0  0  0  0  0  0  0  0  0  0  0
   -7.0419  -15.0012    9.8658 N   0  0  0  0  0  0  0  0  0  0  0  0
   -6.5485  -15.6005    8.7998 C   0  0  0  0  0  0  0  0  0  0  0  0
   -5.4179  -15.1109    8.2355 O   0  0  0  0  0  0  0  0  0  0  0  0
   -7.1237  -16.6671    8.2642 N   0  0  0  0  0  0  0  0  0  0  0  0
   -8.2288  -17.1794    8.7825 C   0  0  0  0  0  0  0  0  0  0  0  0
   -8.8076  -18.2716    8.2261 O   0  0  0  0  0  0  0  0  0  0  0  0
   -8.7891  -16.5782    9.9222 C   0  0  0  0  0  0  0  0  0  0  0  0
   -9.9520  -17.0841   10.5005 N   0  0  0  0  0  0  0  0  0  0  0  0
   -9.9102  -18.2327   11.2050 C   0  0  0  0  0  0  0  0  0  0  0  0
   -8.8692  -18.8547   11.2905 O   0  0  0  0  0  0  0  0  0  0  0  0
  -11.1265  -18.7332   11.8702 C   0  0  0  0  0  0  0  0  0  0  0  0
  -12.4122  -18.3120   11.6594 C   0  0  0  0  0  0  0  0  0  0  0  0
  -13.1766  -19.1074   12.5406 C   0  0  0  0  0  0  0  0  0  0  0  0
  -12.3395  -19.8851   13.1617 N   0  0  0  0  0  0  0  0  0  0  0  0
  -11.1999  -19.7010   12.8032 O   0  0  0  0  0  0  0  0  0  0  0  0
  1  2  1  0
  2  3  2  0
  2  4  1  0
  4  5  2  0
  4 11  1  0
  5  6  1  0
  6  7  1  0
  6  8  2  0
  8  9  1  0
  9 10  1  0
  9 11  2  0
 11 12  1  0
 12 13  1  0
 13 14  2  0
 13 15  1  0
 15 16  2  0
 15 19  1  0
 16 17  1  0
 17 18  2  0
 18 19  1  0
M  END
>  <Gold.Gold.Protein.RotatedWaterAtoms>  (250) 


>  <Gold.Id.Protein>  (250) 


>  <Gold.PLP.Chemscore.CHOScore>  (250) 
1.0000

>  <Gold.PLP.Chemscore.Hbond>  (250) 
2.9003

>  <Gold.PLP.Chemscore.Internal.Correction>  (250) 
1.1612

>  <Gold.PLP.Chemscore.Metal>  (250) 
0.0000

>  <Gold.PLP.Fitness>  (250) 
42.2810

>  <Gold.PLP.PLP>  (250) 
-30.9656

>  <Gold.PLP.ligand.clash>  (250) 
0.0000

>  <Gold.PLP.ligand.torsion>  (250) 
0.7734

>  <Gold.PLP.part.buried>  (250) 
-6.4922

>  <Gold.PLP.part.hbond>  (250) 
-6.7811

>  <Gold.PLP.part.metal>  (250) 
0.0000

>  <Gold.PLP.part.nonpolar>  (250) 
-18.3016

>  <Gold.PLP.part.repulsive>  (250) 
0.3815

>  <Gold.Protein.RotatedAtoms>  (250) 


>  <Gold.Protein.RotatedTorsions>  (250) 


>  <Gold.Protein.RotatedWaterAtoms>  (250) 


>  <Gold.Version>  (250) 
5.3.0

>  <PLP.Chemscore.CHOScore>  (250) 


>  <PLP.Chemscore.Hbond>  (250) 


>  <PLP.Chemscore.Internal.Correction>  (250) 


>  <PLP.Chemscore.Metal>  (250) 


>  <PLP.Fitness>  (250) 


>  <PLP.PLP>  (250) 


>  <PLP.ligand.clash>  (250) 


>  <PLP.ligand.torsion>  (250) 


>  <PLP.part.buried>  (250) 


>  <PLP.part.hbond>  (250) 


>  <PLP.part.metal>  (250) 


>  <PLP.part.nonpolar>  (250) 


>  <PLP.part.repulsive>  (250) 


>  <Version>  (250) 


$$$$
3250|Compound_2029|Compounds_3D_F|sdf|580|dock2|1
     RDKit          3D

 19 20  0  0  0  0  0  0  0  0999 V2000
   -8.9551  -14.6912   11.4195 O   0  0  0  0  0  0  0  0  0  0  0  0
   -7.7075  -14.5317   10.9378 C   0  0  0  0  0  0  0  0  0  0  0  0
   -6.9401  -13.7639   11.4830 O   0  0  0  0  0  0  0  0  0  0  0  0
   -7.2732  -15.2901    9.7440 C   0  0  0  0  0  0  0  0  0  0  0  0
   -6.1698  -14.9375    9.0800 N   0  0  0  0  0  0  0  0  0  0  0  0
   -5.7772  -15.6080    8.0147 C   0  0  0  0  0  0  0  0  0  0  0  0
   -4.6510  -15.2166    7.3706 O   0  0  0  0  0  0  0  0  0  0  0  0
   -6.4493  -16.6534    7.5554 N   0  0  0  0  0  0  0  0  0  0  0  0
   -7.5542  -17.0709    8.1532 C   0  0  0  0  0  0  0  0  0  0  0  0
   -8.2327  -18.1422    7.6743 O   0  0  0  0  0  0  0  0  0  0  0  0
   -8.0092  -16.3911    9.2956 C   0  0  0  0  0  0  0  0  0  0  0  0
   -9.1678  -16.7962    9.9562 N   0  0  0  0  0  0  0  0  0  0  0  0
   -9.2213  -18.0094   10.5413 C   0  0  0  0  0  0  0  0  0  0  0  0
   -8.2785  -18.7710   10.4467 O   0  0  0  0  0  0  0  0  0  0  0  0
  -10.4227  -18.4114   11.2945 C   0  0  0  0  0  0  0  0  0  0  0  0
  -10.8355  -19.6889   11.5643 C   0  0  0  0  0  0  0  0  0  0  0  0
  -12.0250  -19.5100   12.3037 C   0  0  0  0  0  0  0  0  0  0  0  0
  -12.2100  -18.2268   12.4071 N   0  0  0  0  0  0  0  0  0  0  0  0
  -11.3331  -17.5982   11.8620 O   0  0  0  0  0  0  0  0  0  0  0  0
  1  2  1  0
  2  3  2  0
  2  4  1  0
  4  5  2  0
  4 11  1  0
  5  6  1  0
  6  7  1  0
  6  8  2  0
  8  9  1  0
  9 10  1  0
  9 11  2  0
 11 12  1  0
 12 13  1  0
 13 14  2  0
 13 15  1  0
 15 16  2  0
 15 19  1  0
 16 17  1  0
 17 18  2  0
 18 19  1  0
M  END
>  <Gold.Gold.Protein.RotatedWaterAtoms>  (251) 


>  <Gold.Id.Protein>  (251) 


>  <Gold.PLP.Chemscore.CHOScore>  (251) 
0.0000

>  <Gold.PLP.Chemscore.Hbond>  (251) 
3.9137

>  <Gold.PLP.Chemscore.Internal.Correction>  (251) 
1.1612

>  <Gold.PLP.Chemscore.Metal>  (251) 
0.0000

>  <Gold.PLP.Fitness>  (251) 
41.3665

>  <Gold.PLP.PLP>  (251) 
-30.3345

>  <Gold.PLP.ligand.clash>  (251) 
0.0000

>  <Gold.PLP.ligand.torsion>  (251) 
0.9352

>  <Gold.PLP.part.buried>  (251) 
-5.9111

>  <Gold.PLP.part.hbond>  (251) 
-7.6626

>  <Gold.PLP.part.metal>  (251) 
0.0000

>  <Gold.PLP.part.nonpolar>  (251) 
-17.2279

>  <Gold.PLP.part.repulsive>  (251) 
0.5200

>  <Gold.Protein.RotatedAtoms>  (251) 


>  <Gold.Protein.RotatedTorsions>  (251) 


>  <Gold.Protein.RotatedWaterAtoms>  (251) 


>  <Gold.Version>  (251) 
5.3.0

>  <PLP.Chemscore.CHOScore>  (251) 


>  <PLP.Chemscore.Hbond>  (251) 


>  <PLP.Chemscore.Internal.Correction>  (251) 


>  <PLP.Chemscore.Metal>  (251) 


>  <PLP.Fitness>  (251) 


>  <PLP.PLP>  (251) 


>  <PLP.ligand.clash>  (251) 


>  <PLP.ligand.torsion>  (251) 


>  <PLP.part.buried>  (251) 


>  <PLP.part.hbond>  (251) 


>  <PLP.part.metal>  (251) 


>  <PLP.part.nonpolar>  (251) 


>  <PLP.part.repulsive>  (251) 


>  <Version>  (251) 


$$$$
3251|Compound_2029|Compounds_3D_F|sdf|580|dock3|1
     RDKit          3D

 19 20  0  0  0  0  0  0  0  0999 V2000
   -9.6898  -15.3251   12.5004 O   0  0  0  0  0  0  0  0  0  0  0  0
   -8.7674  -14.7018   11.7425 C   0  0  0  0  0  0  0  0  0  0  0  0
   -8.4154  -13.5729   12.0210 O   0  0  0  0  0  0  0  0  0  0  0  0
   -8.1848  -15.3914   10.5703 C   0  0  0  0  0  0  0  0  0  0  0  0
   -7.0413  -14.9635   10.0300 N   0  0  0  0  0  0  0  0  0  0  0  0
   -6.5167  -15.5725    8.9847 C   0  0  0  0  0  0  0  0  0  0  0  0
   -5.3542  -15.1057    8.4677 O   0  0  0  0  0  0  0  0  0  0  0  0
   -7.0906  -16.6274    8.4250 N   0  0  0  0  0  0  0  0  0  0  0  0
   -8.2261  -17.1175    8.8970 C   0  0  0  0  0  0  0  0  0  0  0  0
   -8.8032  -18.1978    8.3164 O   0  0  0  0  0  0  0  0  0  0  0  0
   -8.8206  -16.5052   10.0133 C   0  0  0  0  0  0  0  0  0  0  0  0
  -10.0161  -16.9877   10.5430 N   0  0  0  0  0  0  0  0  0  0  0  0
  -10.0605  -18.2147   11.0994 C   0  0  0  0  0  0  0  0  0  0  0  0
   -9.0712  -18.9212   11.0910 O   0  0  0  0  0  0  0  0  0  0  0  0
  -11.3083  -18.6987   11.7168 C   0  0  0  0  0  0  0  0  0  0  0  0
  -12.5836  -18.5000   11.2593 C   0  0  0  0  0  0  0  0  0  0  0  0
  -13.3901  -19.1632   12.2097 C   0  0  0  0  0  0  0  0  0  0  0  0
  -12.5830  -19.6690   13.0952 N   0  0  0  0  0  0  0  0  0  0  0  0
  -11.4256  -19.4306   12.8405 O   0  0  0  0  0  0  0  0  0  0  0  0
  1  2  1  0
  2  3  2  0
  2  4  1  0
  4  5  2  0
  4 11  1  0
  5  6  1  0
  6  7  1  0
  6  8  2  0
  8  9  1  0
  9 10  1  0
  9 11  2  0
 11 12  1  0
 12 13  1  0
 13 14  2  0
 13 15  1  0
 15 16  2  0
 15 19  1  0
 16 17  1  0
 17 18  2  0
 18 19  1  0
M  END
>  <Gold.Gold.Protein.RotatedWaterAtoms>  (252) 


>  <Gold.Id.Protein>  (252) 


>  <Gold.PLP.Chemscore.CHOScore>  (252) 
1.0000

>  <Gold.PLP.Chemscore.Hbond>  (252) 
3.3968

>  <Gold.PLP.Chemscore.Internal.Correction>  (252) 
1.1585

>  <Gold.PLP.Chemscore.Metal>  (252) 
0.0000

>  <Gold.PLP.Fitness>  (252) 
43.4743

>  <Gold.PLP.PLP>  (252) 
-31.8138

>  <Gold.PLP.ligand.clash>  (252) 
0.0000

>  <Gold.PLP.ligand.torsion>  (252) 
1.3442

>  <Gold.PLP.part.buried>  (252) 
-6.9103

>  <Gold.PLP.part.hbond>  (252) 
-8.0000

>  <Gold.PLP.part.metal>  (252) 
0.0000

>  <Gold.PLP.part.nonpolar>  (252) 
-17.5144

>  <Gold.PLP.part.repulsive>  (252) 
0.3937

>  <Gold.Protein.RotatedAtoms>  (252) 


>  <Gold.Protein.RotatedTorsions>  (252) 


>  <Gold.Protein.RotatedWaterAtoms>  (252) 


>  <Gold.Version>  (252) 
5.3.0

>  <PLP.Chemscore.CHOScore>  (252) 


>  <PLP.Chemscore.Hbond>  (252) 


>  <PLP.Chemscore.Internal.Correction>  (252) 


>  <PLP.Chemscore.Metal>  (252) 


>  <PLP.Fitness>  (252) 


>  <PLP.PLP>  (252) 


>  <PLP.ligand.clash>  (252) 


>  <PLP.ligand.torsion>  (252) 


>  <PLP.part.buried>  (252) 


>  <PLP.part.hbond>  (252) 


>  <PLP.part.metal>  (252) 


>  <PLP.part.nonpolar>  (252) 


>  <PLP.part.repulsive>  (252) 


>  <Version>  (252) 


$$$$
3252|Compound_2032|Compounds_3D_F|sdf|581|dock1|1
     RDKit          3D

 18 19  0  0  0  0  0  0  0  0999 V2000
   -7.6307  -15.9814   11.7472 N   0  0  0  0  0  0  0  0  0  0  0  0
   -8.0310  -14.7077   11.9328 C   0  0  0  0  0  0  0  0  0  0  0  0
   -9.2141  -14.4321   11.9004 O   0  0  0  0  0  0  0  0  0  0  0  0
   -7.0331  -13.6492   12.1753 C   0  0  0  0  0  0  0  0  0  0  0  0
   -5.7313  -13.8194   12.5591 C   0  0  0  0  0  0  0  0  0  0  0  0
   -5.2294  -12.5014   12.6468 C   0  0  0  0  0  0  0  0  0  0  0  0
   -6.2114  -11.7079   12.3292 N   0  0  0  0  0  0  0  0  0  0  0  0
   -7.2186  -12.3211   12.0581 O   0  0  0  0  0  0  0  0  0  0  0  0
   -8.5671  -16.9740   11.5147 C   0  0  0  0  0  0  0  0  0  0  0  0
   -9.8347  -16.9074   11.8248 N   0  0  0  0  0  0  0  0  0  0  0  0
  -10.4329  -18.0705   11.4415 C   0  0  0  0  0  0  0  0  0  0  0  0
   -9.4699  -18.8516   10.8827 C   0  0  0  0  0  0  0  0  0  0  0  0
   -8.3200  -18.1566   10.9305 O   0  0  0  0  0  0  0  0  0  0  0  0
  -11.8545  -18.4165   11.6025 C   0  0  0  0  0  0  0  0  0  0  0  0
  -12.5043  -17.9165   12.5004 O   0  0  0  0  0  0  0  0  0  0  0  0
  -12.4371  -19.2873   10.7547 O   0  0  0  0  0  0  0  0  0  0  0  0
  -13.8553  -19.1101   10.4977 C   0  0  0  0  0  0  0  0  0  0  0  0
  -14.1638  -19.5011    9.0508 C   0  0  0  0  0  0  0  0  0  0  0  0
  1  2  1  0
  1  9  1  0
  2  3  2  0
  2  4  1  0
  4  5  2  0
  4  8  1  0
  5  6  1  0
  6  7  2  0
  7  8  1  0
  9 10  2  0
  9 13  1  0
 10 11  1  0
 11 12  2  0
 11 14  1  0
 12 13  1  0
 14 15  2  0
 14 16  1  0
 16 17  1  0
 17 18  1  0
M  END
>  <Gold.Gold.Protein.RotatedWaterAtoms>  (253) 


>  <Gold.Id.Protein>  (253) 


>  <Gold.PLP.Chemscore.CHOScore>  (253) 
1.4134

>  <Gold.PLP.Chemscore.Hbond>  (253) 
1.5491

>  <Gold.PLP.Chemscore.Internal.Correction>  (253) 
0.0659

>  <Gold.PLP.Chemscore.Metal>  (253) 
0.0000

>  <Gold.PLP.Fitness>  (253) 
48.9599

>  <Gold.PLP.PLP>  (253) 
-42.2878

>  <Gold.PLP.ligand.clash>  (253) 
0.0000

>  <Gold.PLP.ligand.torsion>  (253) 
1.1407

>  <Gold.PLP.part.buried>  (253) 
-8.8394

>  <Gold.PLP.part.hbond>  (253) 
-3.4747

>  <Gold.PLP.part.metal>  (253) 
0.0000

>  <Gold.PLP.part.nonpolar>  (253) 
-31.8323

>  <Gold.PLP.part.repulsive>  (253) 
0.7303

>  <Gold.Protein.RotatedAtoms>  (253) 


>  <Gold.Protein.RotatedTorsions>  (253) 


>  <Gold.Protein.RotatedWaterAtoms>  (253) 


>  <Gold.Version>  (253) 
5.3.0

>  <PLP.Chemscore.CHOScore>  (253) 


>  <PLP.Chemscore.Hbond>  (253) 


>  <PLP.Chemscore.Internal.Correction>  (253) 


>  <PLP.Chemscore.Metal>  (253) 


>  <PLP.Fitness>  (253) 


>  <PLP.PLP>  (253) 


>  <PLP.ligand.clash>  (253) 


>  <PLP.ligand.torsion>  (253) 


>  <PLP.part.buried>  (253) 


>  <PLP.part.hbond>  (253) 


>  <PLP.part.metal>  (253) 


>  <PLP.part.nonpolar>  (253) 


>  <PLP.part.repulsive>  (253) 


>  <Version>  (253) 


$$$$
3253|Compound_2032|Compounds_3D_F|sdf|581|dock2|1
     RDKit          3D

 18 19  0  0  0  0  0  0  0  0999 V2000
   -7.6858  -15.7701   11.7232 N   0  0  0  0  0  0  0  0  0  0  0  0
   -8.1521  -14.5073   11.7953 C   0  0  0  0  0  0  0  0  0  0  0  0
   -9.3385  -14.2889   11.6492 O   0  0  0  0  0  0  0  0  0  0  0  0
   -7.2223  -13.3916   12.0517 C   0  0  0  0  0  0  0  0  0  0  0  0
   -5.9358  -13.4821   12.5073 C   0  0  0  0  0  0  0  0  0  0  0  0
   -5.5055  -12.1380   12.5747 C   0  0  0  0  0  0  0  0  0  0  0  0
   -6.5075  -11.4067   12.1797 N   0  0  0  0  0  0  0  0  0  0  0  0
   -7.4672  -12.0793   11.8789 O   0  0  0  0  0  0  0  0  0  0  0  0
   -8.5580  -16.8166   11.4777 C   0  0  0  0  0  0  0  0  0  0  0  0
   -9.8320  -16.8250   11.7676 N   0  0  0  0  0  0  0  0  0  0  0  0
  -10.3540  -18.0219   11.3770 C   0  0  0  0  0  0  0  0  0  0  0  0
   -9.3377  -18.7450   10.8349 C   0  0  0  0  0  0  0  0  0  0  0  0
   -8.2318  -17.9831   10.8997 O   0  0  0  0  0  0  0  0  0  0  0  0
  -11.7550  -18.4515   11.5161 C   0  0  0  0  0  0  0  0  0  0  0  0
  -12.3949  -18.1304   12.4988 O   0  0  0  0  0  0  0  0  0  0  0  0
  -12.3297  -19.2005   10.5542 O   0  0  0  0  0  0  0  0  0  0  0  0
  -13.7612  -19.0472   10.3649 C   0  0  0  0  0  0  0  0  0  0  0  0
  -14.1442  -19.5262    8.9630 C   0  0  0  0  0  0  0  0  0  0  0  0
  1  2  1  0
  1  9  1  0
  2  3  2  0
  2  4  1  0
  4  5  2  0
  4  8  1  0
  5  6  1  0
  6  7  2  0
  7  8  1  0
  9 10  2  0
  9 13  1  0
 10 11  1  0
 11 12  2  0
 11 14  1  0
 12 13  1  0
 14 15  2  0
 14 16  1  0
 16 17  1  0
 17 18  1  0
M  END
>  <Gold.Gold.Protein.RotatedWaterAtoms>  (254) 


>  <Gold.Id.Protein>  (254) 


>  <Gold.PLP.Chemscore.CHOScore>  (254) 
0.9834

>  <Gold.PLP.Chemscore.Hbond>  (254) 
1.7904

>  <Gold.PLP.Chemscore.Internal.Correction>  (254) 
0.0659

>  <Gold.PLP.Chemscore.Metal>  (254) 
0.0000

>  <Gold.PLP.Fitness>  (254) 
49.4435

>  <Gold.PLP.PLP>  (254) 
-43.5823

>  <Gold.PLP.ligand.clash>  (254) 
0.0000

>  <Gold.PLP.ligand.torsion>  (254) 
1.2631

>  <Gold.PLP.part.buried>  (254) 
-9.6112

>  <Gold.PLP.part.hbond>  (254) 
-3.0000

>  <Gold.PLP.part.metal>  (254) 
0.0000

>  <Gold.PLP.part.nonpolar>  (254) 
-31.8246

>  <Gold.PLP.part.repulsive>  (254) 
0.6565

>  <Gold.Protein.RotatedAtoms>  (254) 


>  <Gold.Protein.RotatedTorsions>  (254) 


>  <Gold.Protein.RotatedWaterAtoms>  (254) 


>  <Gold.Version>  (254) 
5.3.0

>  <PLP.Chemscore.CHOScore>  (254) 


>  <PLP.Chemscore.Hbond>  (254) 


>  <PLP.Chemscore.Internal.Correction>  (254) 


>  <PLP.Chemscore.Metal>  (254) 


>  <PLP.Fitness>  (254) 


>  <PLP.PLP>  (254) 


>  <PLP.ligand.clash>  (254) 


>  <PLP.ligand.torsion>  (254) 


>  <PLP.part.buried>  (254) 


>  <PLP.part.hbond>  (254) 


>  <PLP.part.metal>  (254) 


>  <PLP.part.nonpolar>  (254) 


>  <PLP.part.repulsive>  (254) 


>  <Version>  (254) 


$$$$
3254|Compound_2032|Compounds_3D_F|sdf|581|dock3|1
     RDKit          3D

 18 19  0  0  0  0  0  0  0  0999 V2000
   -7.7844  -15.5776   11.8506 N   0  0  0  0  0  0  0  0  0  0  0  0
   -8.2236  -14.3136   11.6874 C   0  0  0  0  0  0  0  0  0  0  0  0
   -9.3595  -14.1098   11.3069 O   0  0  0  0  0  0  0  0  0  0  0  0
   -7.3254  -13.1787   11.9710 C   0  0  0  0  0  0  0  0  0  0  0  0
   -6.0202  -13.2446   12.3748 C   0  0  0  0  0  0  0  0  0  0  0  0
   -5.6361  -11.8906   12.5001 C   0  0  0  0  0  0  0  0  0  0  0  0
   -6.6779  -11.1778   12.1816 N   0  0  0  0  0  0  0  0  0  0  0  0
   -7.6235  -11.8693   11.8789 O   0  0  0  0  0  0  0  0  0  0  0  0
   -8.6260  -16.6427   11.5796 C   0  0  0  0  0  0  0  0  0  0  0  0
   -9.8856  -16.7183   11.9186 N   0  0  0  0  0  0  0  0  0  0  0  0
  -10.3780  -17.9113   11.4805 C   0  0  0  0  0  0  0  0  0  0  0  0
   -9.3586  -18.5616   10.8579 C   0  0  0  0  0  0  0  0  0  0  0  0
   -8.2806  -17.7609   10.9228 O   0  0  0  0  0  0  0  0  0  0  0  0
  -11.7548  -18.4037   11.6498 C   0  0  0  0  0  0  0  0  0  0  0  0
  -12.4742  -17.9178   12.5010 O   0  0  0  0  0  0  0  0  0  0  0  0
  -12.2192  -19.3931   10.8611 O   0  0  0  0  0  0  0  0  0  0  0  0
  -13.6547  -19.6120   10.8528 C   0  0  0  0  0  0  0  0  0  0  0  0
  -14.1965  -19.3867    9.4395 C   0  0  0  0  0  0  0  0  0  0  0  0
  1  2  1  0
  1  9  1  0
  2  3  2  0
  2  4  1  0
  4  5  2  0
  4  8  1  0
  5  6  1  0
  6  7  2  0
  7  8  1  0
  9 10  2  0
  9 13  1  0
 10 11  1  0
 11 12  2  0
 11 14  1  0
 12 13  1  0
 14 15  2  0
 14 16  1  0
 16 17  1  0
 17 18  1  0
M  END
>  <Gold.Gold.Protein.RotatedWaterAtoms>  (255) 


>  <Gold.Id.Protein>  (255) 


>  <Gold.PLP.Chemscore.CHOScore>  (255) 
1.0000

>  <Gold.PLP.Chemscore.Hbond>  (255) 
1.8160

>  <Gold.PLP.Chemscore.Internal.Correction>  (255) 
0.0526

>  <Gold.PLP.Chemscore.Metal>  (255) 
0.0000

>  <Gold.PLP.Fitness>  (255) 
49.2470

>  <Gold.PLP.PLP>  (255) 
-42.8646

>  <Gold.PLP.ligand.clash>  (255) 
0.0000

>  <Gold.PLP.ligand.torsion>  (255) 
1.0591

>  <Gold.PLP.part.buried>  (255) 
-8.4158

>  <Gold.PLP.part.hbond>  (255) 
-3.4892

>  <Gold.PLP.part.metal>  (255) 
0.0000

>  <Gold.PLP.part.nonpolar>  (255) 
-31.0009

>  <Gold.PLP.part.repulsive>  (255) 
0.6980

>  <Gold.Protein.RotatedAtoms>  (255) 


>  <Gold.Protein.RotatedTorsions>  (255) 


>  <Gold.Protein.RotatedWaterAtoms>  (255) 


>  <Gold.Version>  (255) 
5.3.0

>  <PLP.Chemscore.CHOScore>  (255) 


>  <PLP.Chemscore.Hbond>  (255) 


>  <PLP.Chemscore.Internal.Correction>  (255) 


>  <PLP.Chemscore.Metal>  (255) 


>  <PLP.Fitness>  (255) 


>  <PLP.PLP>  (255) 


>  <PLP.ligand.clash>  (255) 


>  <PLP.ligand.torsion>  (255) 


>  <PLP.part.buried>  (255) 


>  <PLP.part.hbond>  (255) 


>  <PLP.part.metal>  (255) 


>  <PLP.part.nonpolar>  (255) 


>  <PLP.part.repulsive>  (255) 


>  <Version>  (255) 


$$$$
3255|Compound_2034|Compounds_3D_F|sdf|582|dock1|1
     RDKit          3D

 18 19  0  0  0  0  0  0  0  0999 V2000
   -7.6801  -15.8825   11.8572 N   0  0  0  0  0  0  0  0  0  0  0  0
   -8.0114  -14.5766   11.8131 C   0  0  0  0  0  0  0  0  0  0  0  0
   -9.1389  -14.2462   11.5028 O   0  0  0  0  0  0  0  0  0  0  0  0
   -7.0057  -13.5503   12.1414 C   0  0  0  0  0  0  0  0  0  0  0  0
   -5.7210  -13.7631   12.5628 C   0  0  0  0  0  0  0  0  0  0  0  0
   -5.1998  -12.4606   12.7319 C   0  0  0  0  0  0  0  0  0  0  0  0
   -6.1555  -11.6353   12.4183 N   0  0  0  0  0  0  0  0  0  0  0  0
   -7.1628  -12.2146   12.0821 O   0  0  0  0  0  0  0  0  0  0  0  0
   -8.6191  -16.8424   11.5454 C   0  0  0  0  0  0  0  0  0  0  0  0
   -8.4359  -17.8858   10.7615 N   0  0  0  0  0  0  0  0  0  0  0  0
   -9.5254  -18.5674   10.6970 N   0  0  0  0  0  0  0  0  0  0  0  0
  -10.4453  -17.9878   11.4360 C   0  0  0  0  0  0  0  0  0  0  0  0
   -9.8845  -16.8883   11.9911 O   0  0  0  0  0  0  0  0  0  0  0  0
  -11.8246  -18.4514   11.6288 C   0  0  0  0  0  0  0  0  0  0  0  0
  -12.5141  -17.9625   12.5033 O   0  0  0  0  0  0  0  0  0  0  0  0
  -12.3280  -19.4192   10.8362 O   0  0  0  0  0  0  0  0  0  0  0  0
  -13.7473  -19.6999   10.9578 C   0  0  0  0  0  0  0  0  0  0  0  0
  -14.4451  -19.3885    9.6317 C   0  0  0  0  0  0  0  0  0  0  0  0
  1  2  1  0
  1  9  1  0
  2  3  2  0
  2  4  1  0
  4  5  2  0
  4  8  1  0
  5  6  1  0
  6  7  2  0
  7  8  1  0
  9 10  2  0
  9 13  1  0
 10 11  1  0
 11 12  2  0
 12 13  1  0
 12 14  1  0
 14 15  2  0
 14 16  1  0
 16 17  1  0
 17 18  1  0
M  END
>  <Gold.Gold.Protein.RotatedWaterAtoms>  (256) 


>  <Gold.Id.Protein>  (256) 


>  <Gold.PLP.Chemscore.CHOScore>  (256) 
1.6261

>  <Gold.PLP.Chemscore.Hbond>  (256) 
1.7513

>  <Gold.PLP.Chemscore.Internal.Correction>  (256) 
0.0534

>  <Gold.PLP.Chemscore.Metal>  (256) 
0.0000

>  <Gold.PLP.Fitness>  (256) 
47.0445

>  <Gold.PLP.PLP>  (256) 
-38.6557

>  <Gold.PLP.ligand.clash>  (256) 
0.0000

>  <Gold.PLP.ligand.torsion>  (256) 
0.8984

>  <Gold.PLP.part.buried>  (256) 
-8.3446

>  <Gold.PLP.part.hbond>  (256) 
-3.3337

>  <Gold.PLP.part.metal>  (256) 
0.0000

>  <Gold.PLP.part.nonpolar>  (256) 
-29.1300

>  <Gold.PLP.part.repulsive>  (256) 
0.7517

>  <Gold.Protein.RotatedAtoms>  (256) 


>  <Gold.Protein.RotatedTorsions>  (256) 


>  <Gold.Protein.RotatedWaterAtoms>  (256) 


>  <Gold.Version>  (256) 
5.3.0

>  <PLP.Chemscore.CHOScore>  (256) 


>  <PLP.Chemscore.Hbond>  (256) 


>  <PLP.Chemscore.Internal.Correction>  (256) 


>  <PLP.Chemscore.Metal>  (256) 


>  <PLP.Fitness>  (256) 


>  <PLP.PLP>  (256) 


>  <PLP.ligand.clash>  (256) 


>  <PLP.ligand.torsion>  (256) 


>  <PLP.part.buried>  (256) 


>  <PLP.part.hbond>  (256) 


>  <PLP.part.metal>  (256) 


>  <PLP.part.nonpolar>  (256) 


>  <PLP.part.repulsive>  (256) 


>  <Version>  (256) 


$$$$
3256|Compound_2034|Compounds_3D_F|sdf|582|dock2|1
     RDKit          3D

 18 19  0  0  0  0  0  0  0  0999 V2000
   -7.6842  -15.8375   11.5016 N   0  0  0  0  0  0  0  0  0  0  0  0
   -8.0648  -14.5695   11.7554 C   0  0  0  0  0  0  0  0  0  0  0  0
   -9.2382  -14.2617   11.6835 O   0  0  0  0  0  0  0  0  0  0  0  0
   -7.0574  -13.5573   12.1199 C   0  0  0  0  0  0  0  0  0  0  0  0
   -5.7580  -13.7847   12.4851 C   0  0  0  0  0  0  0  0  0  0  0  0
   -5.2422  -12.4912   12.7247 C   0  0  0  0  0  0  0  0  0  0  0  0
   -6.2141  -11.6565   12.4978 N   0  0  0  0  0  0  0  0  0  0  0  0
   -7.2271  -12.2223   12.1556 O   0  0  0  0  0  0  0  0  0  0  0  0
   -8.6255  -16.7833   11.1558 C   0  0  0  0  0  0  0  0  0  0  0  0
   -8.5257  -17.6606   10.1774 N   0  0  0  0  0  0  0  0  0  0  0  0
   -9.5885  -18.3852   10.1441 N   0  0  0  0  0  0  0  0  0  0  0  0
  -10.4071  -18.0006   11.0982 C   0  0  0  0  0  0  0  0  0  0  0  0
   -9.8079  -16.9832   11.7594 O   0  0  0  0  0  0  0  0  0  0  0  0
  -11.7253  -18.5737   11.3957 C   0  0  0  0  0  0  0  0  0  0  0  0
  -12.2460  -18.3730   12.4764 O   0  0  0  0  0  0  0  0  0  0  0  0
  -12.3597  -19.3225   10.4710 O   0  0  0  0  0  0  0  0  0  0  0  0
  -13.8113  -19.3031   10.4890 C   0  0  0  0  0  0  0  0  0  0  0  0
  -14.3444  -19.6771    9.1039 C   0  0  0  0  0  0  0  0  0  0  0  0
  1  2  1  0
  1  9  1  0
  2  3  2  0
  2  4  1  0
  4  5  2  0
  4  8  1  0
  5  6  1  0
  6  7  2  0
  7  8  1  0
  9 10  2  0
  9 13  1  0
 10 11  1  0
 11 12  2  0
 12 13  1  0
 12 14  1  0
 14 15  2  0
 14 16  1  0
 16 17  1  0
 17 18  1  0
M  END
>  <Gold.Gold.Protein.RotatedWaterAtoms>  (257) 


>  <Gold.Id.Protein>  (257) 


>  <Gold.PLP.Chemscore.CHOScore>  (257) 
1.5078

>  <Gold.PLP.Chemscore.Hbond>  (257) 
1.6292

>  <Gold.PLP.Chemscore.Internal.Correction>  (257) 
0.0534

>  <Gold.PLP.Chemscore.Metal>  (257) 
0.0000

>  <Gold.PLP.Fitness>  (257) 
45.6587

>  <Gold.PLP.PLP>  (257) 
-38.4059

>  <Gold.PLP.ligand.clash>  (257) 
0.0000

>  <Gold.PLP.ligand.torsion>  (257) 
1.1059

>  <Gold.PLP.part.buried>  (257) 
-8.6909

>  <Gold.PLP.part.hbond>  (257) 
-3.0000

>  <Gold.PLP.part.metal>  (257) 
0.0000

>  <Gold.PLP.part.nonpolar>  (257) 
-28.5761

>  <Gold.PLP.part.repulsive>  (257) 
0.6740

>  <Gold.Protein.RotatedAtoms>  (257) 


>  <Gold.Protein.RotatedTorsions>  (257) 


>  <Gold.Protein.RotatedWaterAtoms>  (257) 


>  <Gold.Version>  (257) 
5.3.0

>  <PLP.Chemscore.CHOScore>  (257) 


>  <PLP.Chemscore.Hbond>  (257) 


>  <PLP.Chemscore.Internal.Correction>  (257) 


>  <PLP.Chemscore.Metal>  (257) 


>  <PLP.Fitness>  (257) 


>  <PLP.PLP>  (257) 


>  <PLP.ligand.clash>  (257) 


>  <PLP.ligand.torsion>  (257) 


>  <PLP.part.buried>  (257) 


>  <PLP.part.hbond>  (257) 


>  <PLP.part.metal>  (257) 


>  <PLP.part.nonpolar>  (257) 


>  <PLP.part.repulsive>  (257) 


>  <Version>  (257) 


$$$$
3257|Compound_2034|Compounds_3D_F|sdf|582|dock3|1
     RDKit          3D

 18 19  0  0  0  0  0  0  0  0999 V2000
   -7.5408  -15.9415   11.8256 N   0  0  0  0  0  0  0  0  0  0  0  0
   -7.9599  -14.6626   11.9032 C   0  0  0  0  0  0  0  0  0  0  0  0
   -9.1430  -14.4041   11.8034 O   0  0  0  0  0  0  0  0  0  0  0  0
   -6.9825  -13.5787   12.1091 C   0  0  0  0  0  0  0  0  0  0  0  0
   -5.6925  -13.7072   12.5483 C   0  0  0  0  0  0  0  0  0  0  0  0
   -5.2070  -12.3803   12.5659 C   0  0  0  0  0  0  0  0  0  0  0  0
   -6.1847  -11.6223   12.1629 N   0  0  0  0  0  0  0  0  0  0  0  0
   -7.1759  -12.2633   11.8981 O   0  0  0  0  0  0  0  0  0  0  0  0
   -8.4540  -16.9550   11.6281 C   0  0  0  0  0  0  0  0  0  0  0  0
   -8.1878  -18.1694   11.1909 N   0  0  0  0  0  0  0  0  0  0  0  0
   -9.2785  -18.8493   11.1293 N   0  0  0  0  0  0  0  0  0  0  0  0
  -10.2823  -18.0978   11.5243 C   0  0  0  0  0  0  0  0  0  0  0  0
   -9.7758  -16.8866   11.8530 O   0  0  0  0  0  0  0  0  0  0  0  0
  -11.6918  -18.5002   11.6009 C   0  0  0  0  0  0  0  0  0  0  0  0
  -12.4192  -18.0109   12.4440 O   0  0  0  0  0  0  0  0  0  0  0  0
  -12.1809  -19.4124   10.7366 O   0  0  0  0  0  0  0  0  0  0  0  0
  -13.5852  -19.3017   10.3850 C   0  0  0  0  0  0  0  0  0  0  0  0
  -13.7655  -18.1932    9.3452 C   0  0  0  0  0  0  0  0  0  0  0  0
  1  2  1  0
  1  9  1  0
  2  3  2  0
  2  4  1  0
  4  5  2  0
  4  8  1  0
  5  6  1  0
  6  7  2  0
  7  8  1  0
  9 10  2  0
  9 13  1  0
 10 11  1  0
 11 12  2  0
 12 13  1  0
 12 14  1  0
 14 15  2  0
 14 16  1  0
 16 17  1  0
 17 18  1  0
M  END
>  <Gold.Gold.Protein.RotatedWaterAtoms>  (258) 


>  <Gold.Id.Protein>  (258) 


>  <Gold.PLP.Chemscore.CHOScore>  (258) 
1.3691

>  <Gold.PLP.Chemscore.Hbond>  (258) 
1.8425

>  <Gold.PLP.Chemscore.Internal.Correction>  (258) 
0.0408

>  <Gold.PLP.Chemscore.Metal>  (258) 
0.0000

>  <Gold.PLP.Fitness>  (258) 
48.6735

>  <Gold.PLP.PLP>  (258) 
-41.1089

>  <Gold.PLP.ligand.clash>  (258) 
0.0000

>  <Gold.PLP.ligand.torsion>  (258) 
1.0554

>  <Gold.PLP.part.buried>  (258) 
-10.7054

>  <Gold.PLP.part.hbond>  (258) 
-3.3498

>  <Gold.PLP.part.metal>  (258) 
0.0000

>  <Gold.PLP.part.nonpolar>  (258) 
-29.9760

>  <Gold.PLP.part.repulsive>  (258) 
0.7114

>  <Gold.Protein.RotatedAtoms>  (258) 


>  <Gold.Protein.RotatedTorsions>  (258) 


>  <Gold.Protein.RotatedWaterAtoms>  (258) 


>  <Gold.Version>  (258) 
5.3.0

>  <PLP.Chemscore.CHOScore>  (258) 


>  <PLP.Chemscore.Hbond>  (258) 


>  <PLP.Chemscore.Internal.Correction>  (258) 


>  <PLP.Chemscore.Metal>  (258) 


>  <PLP.Fitness>  (258) 


>  <PLP.PLP>  (258) 


>  <PLP.ligand.clash>  (258) 


>  <PLP.ligand.torsion>  (258) 


>  <PLP.part.buried>  (258) 


>  <PLP.part.hbond>  (258) 


>  <PLP.part.metal>  (258) 


>  <PLP.part.nonpolar>  (258) 


>  <PLP.part.repulsive>  (258) 


>  <Version>  (258) 


$$$$
3258|Compound_2035|Compounds_3D_F|sdf|583|dock1|1
     RDKit          3D

 17 18  0  0  0  0  0  0  0  0999 V2000
   -8.3697  -15.3734   12.2126 N   0  0  0  0  0  0  0  0  0  0  0  0
   -8.6692  -14.0625   12.1182 C   0  0  0  0  0  0  0  0  0  0  0  0
   -9.8258  -13.7113   11.9933 O   0  0  0  0  0  0  0  0  0  0  0  0
   -7.5932  -13.0551   12.1666 C   0  0  0  0  0  0  0  0  0  0  0  0
   -7.7050  -11.7182   11.8953 C   0  0  0  0  0  0  0  0  0  0  0  0
   -6.3965  -11.2234   12.0901 C   0  0  0  0  0  0  0  0  0  0  0  0
   -5.6620  -12.2403   12.4383 N   0  0  0  0  0  0  0  0  0  0  0  0
   -6.3036  -13.2635   12.4920 O   0  0  0  0  0  0  0  0  0  0  0  0
   -9.3859  -16.3264   12.1618 C   0  0  0  0  0  0  0  0  0  0  0  0
  -10.5965  -16.2096   12.6400 N   0  0  0  0  0  0  0  0  0  0  0  0
  -11.2489  -17.2081   12.4412 O   0  0  0  0  0  0  0  0  0  0  0  0
  -10.5424  -18.1427   11.7900 C   0  0  0  0  0  0  0  0  0  0  0  0
   -9.3137  -17.6182   11.5749 C   0  0  0  0  0  0  0  0  0  0  0  0
  -11.0232  -19.5085   11.3727 C   0  0  0  0  0  0  0  0  0  0  0  0
   -9.8981  -20.2441   10.6425 C   0  0  0  0  0  0  0  0  0  0  0  0
  -11.4325  -20.3046   12.6134 C   0  0  0  0  0  0  0  0  0  0  0  0
  -12.2270  -19.3632   10.4408 C   0  0  0  0  0  0  0  0  0  0  0  0
  1  2  1  0
  1  9  1  0
  2  3  2  0
  2  4  1  0
  4  5  2  0
  4  8  1  0
  5  6  1  0
  6  7  2  0
  7  8  1  0
  9 10  2  0
  9 13  1  0
 10 11  1  0
 11 12  1  0
 12 13  2  0
 12 14  1  0
 14 15  1  0
 14 16  1  0
 14 17  1  0
M  END
>  <Gold.Gold.Protein.RotatedWaterAtoms>  (259) 


>  <Gold.Id.Protein>  (259) 


>  <Gold.PLP.Chemscore.CHOScore>  (259) 
0.0000

>  <Gold.PLP.Chemscore.Hbond>  (259) 
2.2482

>  <Gold.PLP.Chemscore.Internal.Correction>  (259) 
0.0023

>  <Gold.PLP.Chemscore.Metal>  (259) 
0.0000

>  <Gold.PLP.Fitness>  (259) 
46.2784

>  <Gold.PLP.PLP>  (259) 
-40.1217

>  <Gold.PLP.ligand.clash>  (259) 
0.0000

>  <Gold.PLP.ligand.torsion>  (259) 
0.2951

>  <Gold.PLP.part.buried>  (259) 
-6.7457

>  <Gold.PLP.part.hbond>  (259) 
-5.0240

>  <Gold.PLP.part.metal>  (259) 
0.0000

>  <Gold.PLP.part.nonpolar>  (259) 
-29.8331

>  <Gold.PLP.part.repulsive>  (259) 
0.9324

>  <Gold.Protein.RotatedAtoms>  (259) 


>  <Gold.Protein.RotatedTorsions>  (259) 


>  <Gold.Protein.RotatedWaterAtoms>  (259) 


>  <Gold.Version>  (259) 
5.3.0

>  <PLP.Chemscore.CHOScore>  (259) 


>  <PLP.Chemscore.Hbond>  (259) 


>  <PLP.Chemscore.Internal.Correction>  (259) 


>  <PLP.Chemscore.Metal>  (259) 


>  <PLP.Fitness>  (259) 


>  <PLP.PLP>  (259) 


>  <PLP.ligand.clash>  (259) 


>  <PLP.ligand.torsion>  (259) 


>  <PLP.part.buried>  (259) 


>  <PLP.part.hbond>  (259) 


>  <PLP.part.metal>  (259) 


>  <PLP.part.nonpolar>  (259) 


>  <PLP.part.repulsive>  (259) 


>  <Version>  (259) 


$$$$
3259|Compound_2035|Compounds_3D_F|sdf|583|dock2|1
     RDKit          3D

 17 18  0  0  0  0  0  0  0  0999 V2000
   -8.3122  -15.2741   12.1808 N   0  0  0  0  0  0  0  0  0  0  0  0
   -8.6639  -13.9782   12.0618 C   0  0  0  0  0  0  0  0  0  0  0  0
   -9.8285  -13.6786   11.8870 O   0  0  0  0  0  0  0  0  0  0  0  0
   -7.6352  -12.9247   12.1439 C   0  0  0  0  0  0  0  0  0  0  0  0
   -6.3904  -13.0321   12.7028 C   0  0  0  0  0  0  0  0  0  0  0  0
   -5.8239  -11.7521   12.5141 C   0  0  0  0  0  0  0  0  0  0  0  0
   -6.7198  -11.0354   11.8989 N   0  0  0  0  0  0  0  0  0  0  0  0
   -7.7284  -11.6646   11.6792 O   0  0  0  0  0  0  0  0  0  0  0  0
   -9.2835  -16.2708   12.0983 C   0  0  0  0  0  0  0  0  0  0  0  0
  -10.5180  -16.2011   12.5215 N   0  0  0  0  0  0  0  0  0  0  0  0
  -11.1176  -17.2292   12.3076 O   0  0  0  0  0  0  0  0  0  0  0  0
  -10.3436  -18.1395   11.7002 C   0  0  0  0  0  0  0  0  0  0  0  0
   -9.1302  -17.5648   11.5322 C   0  0  0  0  0  0  0  0  0  0  0  0
  -10.7466  -19.5295   11.2804 C   0  0  0  0  0  0  0  0  0  0  0  0
   -9.5601  -20.2236   10.6090 C   0  0  0  0  0  0  0  0  0  0  0  0
  -11.1751  -20.3288   12.5126 C   0  0  0  0  0  0  0  0  0  0  0  0
  -11.9136  -19.4471   10.2956 C   0  0  0  0  0  0  0  0  0  0  0  0
  1  2  1  0
  1  9  1  0
  2  3  2  0
  2  4  1  0
  4  5  2  0
  4  8  1  0
  5  6  1  0
  6  7  2  0
  7  8  1  0
  9 10  2  0
  9 13  1  0
 10 11  1  0
 11 12  1  0
 12 13  2  0
 12 14  1  0
 14 15  1  0
 14 16  1  0
 14 17  1  0
M  END
>  <Gold.Gold.Protein.RotatedWaterAtoms>  (260) 


>  <Gold.Id.Protein>  (260) 


>  <Gold.PLP.Chemscore.CHOScore>  (260) 
0.9858

>  <Gold.PLP.Chemscore.Hbond>  (260) 
2.1278

>  <Gold.PLP.Chemscore.Internal.Correction>  (260) 
0.0023

>  <Gold.PLP.Chemscore.Metal>  (260) 
0.0000

>  <Gold.PLP.Fitness>  (260) 
49.4137

>  <Gold.PLP.PLP>  (260) 
-40.9251

>  <Gold.PLP.ligand.clash>  (260) 
0.0000

>  <Gold.PLP.ligand.torsion>  (260) 
0.4272

>  <Gold.PLP.part.buried>  (260) 
-6.6876

>  <Gold.PLP.part.hbond>  (260) 
-4.0223

>  <Gold.PLP.part.metal>  (260) 
0.0000

>  <Gold.PLP.part.nonpolar>  (260) 
-30.8102

>  <Gold.PLP.part.repulsive>  (260) 
0.7466

>  <Gold.Protein.RotatedAtoms>  (260) 


>  <Gold.Protein.RotatedTorsions>  (260) 


>  <Gold.Protein.RotatedWaterAtoms>  (260) 


>  <Gold.Version>  (260) 
5.3.0

>  <PLP.Chemscore.CHOScore>  (260) 


>  <PLP.Chemscore.Hbond>  (260) 


>  <PLP.Chemscore.Internal.Correction>  (260) 


>  <PLP.Chemscore.Metal>  (260) 


>  <PLP.Fitness>  (260) 


>  <PLP.PLP>  (260) 


>  <PLP.ligand.clash>  (260) 


>  <PLP.ligand.torsion>  (260) 


>  <PLP.part.buried>  (260) 


>  <PLP.part.hbond>  (260) 


>  <PLP.part.metal>  (260) 


>  <PLP.part.nonpolar>  (260) 


>  <PLP.part.repulsive>  (260) 


>  <Version>  (260) 


$$$$
3260|Compound_2035|Compounds_3D_F|sdf|583|dock3|1
     RDKit          3D

 17 18  0  0  0  0  0  0  0  0999 V2000
   -8.0287  -15.4611   12.1328 N   0  0  0  0  0  0  0  0  0  0  0  0
   -8.2627  -14.1352   12.0655 C   0  0  0  0  0  0  0  0  0  0  0  0
   -9.3963  -13.7257   11.9111 O   0  0  0  0  0  0  0  0  0  0  0  0
   -7.1429  -13.1823   12.1793 C   0  0  0  0  0  0  0  0  0  0  0  0
   -5.8595  -13.4631   12.5634 C   0  0  0  0  0  0  0  0  0  0  0  0
   -5.2066  -12.2123   12.5002 C   0  0  0  0  0  0  0  0  0  0  0  0
   -6.0972  -11.3468   12.1094 N   0  0  0  0  0  0  0  0  0  0  0  0
   -7.1748  -11.8615   11.9210 O   0  0  0  0  0  0  0  0  0  0  0  0
   -9.0862  -16.3625   12.0202 C   0  0  0  0  0  0  0  0  0  0  0  0
  -10.2863  -16.2314   12.5205 N   0  0  0  0  0  0  0  0  0  0  0  0
  -10.9836  -17.1823   12.2525 O   0  0  0  0  0  0  0  0  0  0  0  0
  -10.3244  -18.0926   11.5221 C   0  0  0  0  0  0  0  0  0  0  0  0
   -9.0758  -17.6063   11.3338 C   0  0  0  0  0  0  0  0  0  0  0  0
  -10.8682  -19.3996   11.0056 C   0  0  0  0  0  0  0  0  0  0  0  0
  -12.0636  -19.1285   10.0903 C   0  0  0  0  0  0  0  0  0  0  0  0
   -9.7776  -20.1286   10.2184 C   0  0  0  0  0  0  0  0  0  0  0  0
  -11.3136  -20.2681   12.1829 C   0  0  0  0  0  0  0  0  0  0  0  0
  1  2  1  0
  1  9  1  0
  2  3  2  0
  2  4  1  0
  4  5  2  0
  4  8  1  0
  5  6  1  0
  6  7  2  0
  7  8  1  0
  9 10  2  0
  9 13  1  0
 10 11  1  0
 11 12  1  0
 12 13  2  0
 12 14  1  0
 14 15  1  0
 14 16  1  0
 14 17  1  0
M  END
>  <Gold.Gold.Protein.RotatedWaterAtoms>  (261) 


>  <Gold.Id.Protein>  (261) 


>  <Gold.PLP.Chemscore.CHOScore>  (261) 
1.3096

>  <Gold.PLP.Chemscore.Hbond>  (261) 
1.2289

>  <Gold.PLP.Chemscore.Internal.Correction>  (261) 
0.0023

>  <Gold.PLP.Chemscore.Metal>  (261) 
0.0000

>  <Gold.PLP.Fitness>  (261) 
48.2466

>  <Gold.PLP.PLP>  (261) 
-41.3365

>  <Gold.PLP.ligand.clash>  (261) 
0.0000

>  <Gold.PLP.ligand.torsion>  (261) 
0.3539

>  <Gold.PLP.part.buried>  (261) 
-8.7416

>  <Gold.PLP.part.hbond>  (261) 
-3.7376

>  <Gold.PLP.part.metal>  (261) 
0.0000

>  <Gold.PLP.part.nonpolar>  (261) 
-29.9811

>  <Gold.PLP.part.repulsive>  (261) 
0.7835

>  <Gold.Protein.RotatedAtoms>  (261) 


>  <Gold.Protein.RotatedTorsions>  (261) 


>  <Gold.Protein.RotatedWaterAtoms>  (261) 


>  <Gold.Version>  (261) 
5.3.0

>  <PLP.Chemscore.CHOScore>  (261) 


>  <PLP.Chemscore.Hbond>  (261) 


>  <PLP.Chemscore.Internal.Correction>  (261) 


>  <PLP.Chemscore.Metal>  (261) 


>  <PLP.Fitness>  (261) 


>  <PLP.PLP>  (261) 


>  <PLP.ligand.clash>  (261) 


>  <PLP.ligand.torsion>  (261) 


>  <PLP.part.buried>  (261) 


>  <PLP.part.hbond>  (261) 


>  <PLP.part.metal>  (261) 


>  <PLP.part.nonpolar>  (261) 


>  <PLP.part.repulsive>  (261) 


>  <Version>  (261) 


$$$$
3261|Compound_2036|Compounds_3D_F|sdf|584|dock1|1
     RDKit          3D

 17 18  0  0  0  0  0  0  0  0999 V2000
   -8.7345  -16.7745   10.3378 N   0  0  0  0  0  0  0  0  0  0  0  0
   -9.3625  -17.9531   10.1547 C   0  0  0  0  0  0  0  0  0  0  0  0
   -9.0405  -18.6760    9.2326 O   0  0  0  0  0  0  0  0  0  0  0  0
  -10.4400  -18.3649   11.0737 C   0  0  0  0  0  0  0  0  0  0  0  0
  -10.9897  -19.6129   11.1903 C   0  0  0  0  0  0  0  0  0  0  0  0
  -11.9648  -19.4595   12.2005 C   0  0  0  0  0  0  0  0  0  0  0  0
  -11.9184  -18.2141   12.5767 N   0  0  0  0  0  0  0  0  0  0  0  0
  -11.0778  -17.5906   11.9715 O   0  0  0  0  0  0  0  0  0  0  0  0
   -7.7201  -16.3830    9.4668 C   0  0  0  0  0  0  0  0  0  0  0  0
   -7.3923  -16.9847    8.3577 N   0  0  0  0  0  0  0  0  0  0  0  0
   -6.3170  -16.2681    7.7752 O   0  0  0  0  0  0  0  0  0  0  0  0
   -6.0200  -15.1762    8.6273 N   0  0  0  0  0  0  0  0  0  0  0  0
   -6.8439  -15.2204    9.6369 C   0  0  0  0  0  0  0  0  0  0  0  0
   -6.8795  -14.3193   10.7015 N   0  0  0  0  0  0  0  0  0  0  0  0
   -8.0629  -13.8975   11.1880 C   0  0  0  0  0  0  0  0  0  0  0  0
   -9.0978  -14.3013   10.7007 O   0  0  0  0  0  0  0  0  0  0  0  0
   -8.1012  -12.9243   12.3383 C   0  0  0  0  0  0  0  0  0  0  0  0
  1  2  1  0
  1  9  1  0
  2  3  2  0
  2  4  1  0
  4  5  2  0
  4  8  1  0
  5  6  1  0
  6  7  2  0
  7  8  1  0
  9 10  2  0
  9 13  1  0
 10 11  1  0
 11 12  1  0
 12 13  2  0
 13 14  1  0
 14 15  1  0
 15 16  2  0
 15 17  1  0
M  END
>  <Gold.Gold.Protein.RotatedWaterAtoms>  (262) 


>  <Gold.Id.Protein>  (262) 


>  <Gold.PLP.Chemscore.CHOScore>  (262) 
0.0000

>  <Gold.PLP.Chemscore.Hbond>  (262) 
3.0000

>  <Gold.PLP.Chemscore.Internal.Correction>  (262) 
0.0031

>  <Gold.PLP.Chemscore.Metal>  (262) 
0.0000

>  <Gold.PLP.Fitness>  (262) 
35.0773

>  <Gold.PLP.PLP>  (262) 
-26.9174

>  <Gold.PLP.ligand.clash>  (262) 
0.0000

>  <Gold.PLP.ligand.torsion>  (262) 
0.4216

>  <Gold.PLP.part.buried>  (262) 
-7.6087

>  <Gold.PLP.part.hbond>  (262) 
-4.2673

>  <Gold.PLP.part.metal>  (262) 
0.0000

>  <Gold.PLP.part.nonpolar>  (262) 
-16.5057

>  <Gold.PLP.part.repulsive>  (262) 
1.7233

>  <Gold.Protein.RotatedAtoms>  (262) 


>  <Gold.Protein.RotatedTorsions>  (262) 


>  <Gold.Protein.RotatedWaterAtoms>  (262) 


>  <Gold.Version>  (262) 
5.3.0

>  <PLP.Chemscore.CHOScore>  (262) 


>  <PLP.Chemscore.Hbond>  (262) 


>  <PLP.Chemscore.Internal.Correction>  (262) 


>  <PLP.Chemscore.Metal>  (262) 


>  <PLP.Fitness>  (262) 


>  <PLP.PLP>  (262) 


>  <PLP.ligand.clash>  (262) 


>  <PLP.ligand.torsion>  (262) 


>  <PLP.part.buried>  (262) 


>  <PLP.part.hbond>  (262) 


>  <PLP.part.metal>  (262) 


>  <PLP.part.nonpolar>  (262) 


>  <PLP.part.repulsive>  (262) 


>  <Version>  (262) 


$$$$
3262|Compound_2036|Compounds_3D_F|sdf|584|dock2|1
     RDKit          3D

 17 18  0  0  0  0  0  0  0  0999 V2000
  -10.3360  -17.5009   10.1081 N   0  0  0  0  0  0  0  0  0  0  0  0
  -10.2455  -18.6630   10.7850 C   0  0  0  0  0  0  0  0  0  0  0  0
   -9.2814  -19.3852   10.6256 O   0  0  0  0  0  0  0  0  0  0  0  0
  -11.3166  -19.0574   11.7190 C   0  0  0  0  0  0  0  0  0  0  0  0
  -12.6270  -18.6640   11.6814 C   0  0  0  0  0  0  0  0  0  0  0  0
  -13.2092  -19.3223   12.7872 C   0  0  0  0  0  0  0  0  0  0  0  0
  -12.2591  -20.0076   13.3549 N   0  0  0  0  0  0  0  0  0  0  0  0
  -11.2044  -19.8815   12.7776 O   0  0  0  0  0  0  0  0  0  0  0  0
   -9.3267  -17.1305    9.2219 C   0  0  0  0  0  0  0  0  0  0  0  0
   -8.7531  -17.9111    8.3493 N   0  0  0  0  0  0  0  0  0  0  0  0
   -7.7857  -17.1462    7.6509 O   0  0  0  0  0  0  0  0  0  0  0  0
   -7.8219  -15.8305    8.1746 N   0  0  0  0  0  0  0  0  0  0  0  0
   -8.7336  -15.7953    9.1061 C   0  0  0  0  0  0  0  0  0  0  0  0
   -9.0793  -14.6788    9.8680 N   0  0  0  0  0  0  0  0  0  0  0  0
   -8.7095  -14.6049   11.1614 C   0  0  0  0  0  0  0  0  0  0  0  0
   -8.0757  -15.5091   11.6638 O   0  0  0  0  0  0  0  0  0  0  0  0
   -9.0827  -13.3985   11.9843 C   0  0  0  0  0  0  0  0  0  0  0  0
  1  2  1  0
  1  9  1  0
  2  3  2  0
  2  4  1  0
  4  5  2  0
  4  8  1  0
  5  6  1  0
  6  7  2  0
  7  8  1  0
  9 10  2  0
  9 13  1  0
 10 11  1  0
 11 12  1  0
 12 13  2  0
 13 14  1  0
 14 15  1  0
 15 16  2  0
 15 17  1  0
M  END
>  <Gold.Gold.Protein.RotatedWaterAtoms>  (263) 


>  <Gold.Id.Protein>  (263) 


>  <Gold.PLP.Chemscore.CHOScore>  (263) 
1.0000

>  <Gold.PLP.Chemscore.Hbond>  (263) 
1.9966

>  <Gold.PLP.Chemscore.Internal.Correction>  (263) 
0.0031

>  <Gold.PLP.Chemscore.Metal>  (263) 
0.0000

>  <Gold.PLP.Fitness>  (263) 
35.2983

>  <Gold.PLP.PLP>  (263) 
-28.9429

>  <Gold.PLP.ligand.clash>  (263) 
0.0000

>  <Gold.PLP.ligand.torsion>  (263) 
1.3187

>  <Gold.PLP.part.buried>  (263) 
-3.8812

>  <Gold.PLP.part.hbond>  (263) 
-5.6796

>  <Gold.PLP.part.metal>  (263) 
0.0000

>  <Gold.PLP.part.nonpolar>  (263) 
-19.7060

>  <Gold.PLP.part.repulsive>  (263) 
0.4657

>  <Gold.Protein.RotatedAtoms>  (263) 


>  <Gold.Protein.RotatedTorsions>  (263) 


>  <Gold.Protein.RotatedWaterAtoms>  (263) 


>  <Gold.Version>  (263) 
5.3.0

>  <PLP.Chemscore.CHOScore>  (263) 


>  <PLP.Chemscore.Hbond>  (263) 


>  <PLP.Chemscore.Internal.Correction>  (263) 


>  <PLP.Chemscore.Metal>  (263) 


>  <PLP.Fitness>  (263) 


>  <PLP.PLP>  (263) 


>  <PLP.ligand.clash>  (263) 


>  <PLP.ligand.torsion>  (263) 


>  <PLP.part.buried>  (263) 


>  <PLP.part.hbond>  (263) 


>  <PLP.part.metal>  (263) 


>  <PLP.part.nonpolar>  (263) 


>  <PLP.part.repulsive>  (263) 


>  <Version>  (263) 


$$$$
3263|Compound_2036|Compounds_3D_F|sdf|584|dock3|1
     RDKit          3D

 17 18  0  0  0  0  0  0  0  0999 V2000
   -8.3160  -16.1969   11.3322 N   0  0  0  0  0  0  0  0  0  0  0  0
   -7.1405  -15.6837   11.7470 C   0  0  0  0  0  0  0  0  0  0  0  0
   -6.1891  -16.4168   11.9313 O   0  0  0  0  0  0  0  0  0  0  0  0
   -7.0097  -14.2328   11.9768 C   0  0  0  0  0  0  0  0  0  0  0  0
   -5.9240  -13.5757   12.4894 C   0  0  0  0  0  0  0  0  0  0  0  0
   -6.3219  -12.2205   12.4969 C   0  0  0  0  0  0  0  0  0  0  0  0
   -7.5328  -12.1854   12.0200 N   0  0  0  0  0  0  0  0  0  0  0  0
   -7.9318  -13.2863   11.7194 O   0  0  0  0  0  0  0  0  0  0  0  0
   -8.4413  -17.5682   11.1199 C   0  0  0  0  0  0  0  0  0  0  0  0
   -7.4769  -18.3801   10.7877 N   0  0  0  0  0  0  0  0  0  0  0  0
   -8.0246  -19.6822   10.6725 O   0  0  0  0  0  0  0  0  0  0  0  0
   -9.4076  -19.5914   10.9651 N   0  0  0  0  0  0  0  0  0  0  0  0
   -9.6780  -18.3456   11.2390 C   0  0  0  0  0  0  0  0  0  0  0  0
  -10.9324  -17.8384   11.5792 N   0  0  0  0  0  0  0  0  0  0  0  0
  -11.9443  -18.6801   11.8666 C   0  0  0  0  0  0  0  0  0  0  0  0
  -11.7650  -19.8793   11.8298 O   0  0  0  0  0  0  0  0  0  0  0  0
  -13.2993  -18.1320   12.2345 C   0  0  0  0  0  0  0  0  0  0  0  0
  1  2  1  0
  1  9  1  0
  2  3  2  0
  2  4  1  0
  4  5  2  0
  4  8  1  0
  5  6  1  0
  6  7  2  0
  7  8  1  0
  9 10  2  0
  9 13  1  0
 10 11  1  0
 11 12  1  0
 12 13  2  0
 13 14  1  0
 14 15  1  0
 15 16  2  0
 15 17  1  0
M  END
>  <Gold.Gold.Protein.RotatedWaterAtoms>  (264) 


>  <Gold.Id.Protein>  (264) 


>  <Gold.PLP.Chemscore.CHOScore>  (264) 
0.0000

>  <Gold.PLP.Chemscore.Hbond>  (264) 
1.0000

>  <Gold.PLP.Chemscore.Internal.Correction>  (264) 
0.0031

>  <Gold.PLP.Chemscore.Metal>  (264) 
0.0000

>  <Gold.PLP.Fitness>  (264) 
36.1643

>  <Gold.PLP.PLP>  (264) 
-33.5680

>  <Gold.PLP.ligand.clash>  (264) 
0.0000

>  <Gold.PLP.ligand.torsion>  (264) 
0.2034

>  <Gold.PLP.part.buried>  (264) 
-9.8061

>  <Gold.PLP.part.hbond>  (264) 
-1.0000

>  <Gold.PLP.part.metal>  (264) 
0.0000

>  <Gold.PLP.part.nonpolar>  (264) 
-22.9875

>  <Gold.PLP.part.repulsive>  (264) 
0.4002

>  <Gold.Protein.RotatedAtoms>  (264) 


>  <Gold.Protein.RotatedTorsions>  (264) 


>  <Gold.Protein.RotatedWaterAtoms>  (264) 


>  <Gold.Version>  (264) 
5.3.0

>  <PLP.Chemscore.CHOScore>  (264) 


>  <PLP.Chemscore.Hbond>  (264) 


>  <PLP.Chemscore.Internal.Correction>  (264) 


>  <PLP.Chemscore.Metal>  (264) 


>  <PLP.Fitness>  (264) 


>  <PLP.PLP>  (264) 


>  <PLP.ligand.clash>  (264) 


>  <PLP.ligand.torsion>  (264) 


>  <PLP.part.buried>  (264) 


>  <PLP.part.hbond>  (264) 


>  <PLP.part.metal>  (264) 


>  <PLP.part.nonpolar>  (264) 


>  <PLP.part.repulsive>  (264) 


>  <Version>  (264) 


$$$$
3264|Compound_2036|Compounds_3D_F|sdf|584|dock4|1
     RDKit          3D

 17 18  0  0  0  0  0  0  0  0999 V2000
   -9.1800  -16.5540   11.2091 N   0  0  0  0  0  0  0  0  0  0  0  0
   -7.9671  -16.0400   11.4954 C   0  0  0  0  0  0  0  0  0  0  0  0
   -6.9835  -16.7530   11.4678 O   0  0  0  0  0  0  0  0  0  0  0  0
   -7.8345  -14.6126   11.8418 C   0  0  0  0  0  0  0  0  0  0  0  0
   -6.6970  -13.9657   12.2429 C   0  0  0  0  0  0  0  0  0  0  0  0
   -7.1191  -12.6327   12.4426 C   0  0  0  0  0  0  0  0  0  0  0  0
   -8.3901  -12.5988   12.1627 N   0  0  0  0  0  0  0  0  0  0  0  0
   -8.8064  -13.6814   11.8218 O   0  0  0  0  0  0  0  0  0  0  0  0
   -9.3062  -17.9036   10.8868 C   0  0  0  0  0  0  0  0  0  0  0  0
   -8.3804  -18.8109   11.0251 N   0  0  0  0  0  0  0  0  0  0  0  0
   -8.9139  -20.0477   10.5841 O   0  0  0  0  0  0  0  0  0  0  0  0
  -10.2470  -19.8133   10.1663 N   0  0  0  0  0  0  0  0  0  0  0  0
  -10.5047  -18.5472   10.3414 C   0  0  0  0  0  0  0  0  0  0  0  0
  -11.7127  -17.9124   10.0510 N   0  0  0  0  0  0  0  0  0  0  0  0
  -12.7278  -18.6117    9.5074 C   0  0  0  0  0  0  0  0  0  0  0  0
  -12.5918  -19.7936    9.2703 O   0  0  0  0  0  0  0  0  0  0  0  0
  -14.0329  -17.9259    9.1941 C   0  0  0  0  0  0  0  0  0  0  0  0
  1  2  1  0
  1  9  1  0
  2  3  2  0
  2  4  1  0
  4  5  2  0
  4  8  1  0
  5  6  1  0
  6  7  2  0
  7  8  1  0
  9 10  2  0
  9 13  1  0
 10 11  1  0
 11 12  1  0
 12 13  2  0
 13 14  1  0
 14 15  1  0
 15 16  2  0
 15 17  1  0
M  END
>  <Gold.Gold.Protein.RotatedWaterAtoms>  (265) 


>  <Gold.Id.Protein>  (265) 


>  <Gold.PLP.Chemscore.CHOScore>  (265) 
0.0000

>  <Gold.PLP.Chemscore.Hbond>  (265) 
1.7000

>  <Gold.PLP.Chemscore.Internal.Correction>  (265) 
0.0021

>  <Gold.PLP.Chemscore.Metal>  (265) 
0.0000

>  <Gold.PLP.Fitness>  (265) 
37.6360

>  <Gold.PLP.PLP>  (265) 
-32.6146

>  <Gold.PLP.ligand.clash>  (265) 
0.0000

>  <Gold.PLP.ligand.torsion>  (265) 
0.0403

>  <Gold.PLP.part.buried>  (265) 
-8.9990

>  <Gold.PLP.part.hbond>  (265) 
-2.0000

>  <Gold.PLP.part.metal>  (265) 
0.0000

>  <Gold.PLP.part.nonpolar>  (265) 
-22.6705

>  <Gold.PLP.part.repulsive>  (265) 
0.3604

>  <Gold.Protein.RotatedAtoms>  (265) 


>  <Gold.Protein.RotatedTorsions>  (265) 


>  <Gold.Protein.RotatedWaterAtoms>  (265) 


>  <Gold.Version>  (265) 
5.3.0

>  <PLP.Chemscore.CHOScore>  (265) 


>  <PLP.Chemscore.Hbond>  (265) 


>  <PLP.Chemscore.Internal.Correction>  (265) 


>  <PLP.Chemscore.Metal>  (265) 


>  <PLP.Fitness>  (265) 


>  <PLP.PLP>  (265) 


>  <PLP.ligand.clash>  (265) 


>  <PLP.ligand.torsion>  (265) 


>  <PLP.part.buried>  (265) 


>  <PLP.part.hbond>  (265) 


>  <PLP.part.metal>  (265) 


>  <PLP.part.nonpolar>  (265) 


>  <PLP.part.repulsive>  (265) 


>  <Version>  (265) 


$$$$
3265|Compound_2036|Compounds_3D_F|sdf|584|dock5|1
     RDKit          3D

 17 18  0  0  0  0  0  0  0  0999 V2000
   -9.0458  -17.3796   11.5986 N   0  0  0  0  0  0  0  0  0  0  0  0
   -9.7195  -18.5445   11.5195 C   0  0  0  0  0  0  0  0  0  0  0  0
   -9.1394  -19.5604   11.1910 O   0  0  0  0  0  0  0  0  0  0  0  0
  -11.1603  -18.5854   11.8317 C   0  0  0  0  0  0  0  0  0  0  0  0
  -12.0309  -19.6076   11.5662 C   0  0  0  0  0  0  0  0  0  0  0  0
  -13.2661  -19.1372   12.0641 C   0  0  0  0  0  0  0  0  0  0  0  0
  -13.0434  -17.9511   12.5523 N   0  0  0  0  0  0  0  0  0  0  0  0
  -11.8839  -17.6273   12.4406 O   0  0  0  0  0  0  0  0  0  0  0  0
   -7.6858  -17.3397   11.2988 C   0  0  0  0  0  0  0  0  0  0  0  0
   -6.9711  -18.3388   10.8623 N   0  0  0  0  0  0  0  0  0  0  0  0
   -5.6426  -17.8782   10.6836 O   0  0  0  0  0  0  0  0  0  0  0  0
   -5.6121  -16.5099   11.0488 N   0  0  0  0  0  0  0  0  0  0  0  0
   -6.8158  -16.1657   11.4131 C   0  0  0  0  0  0  0  0  0  0  0  0
   -7.2066  -14.8982   11.8458 N   0  0  0  0  0  0  0  0  0  0  0  0
   -8.3810  -14.3792   11.4377 C   0  0  0  0  0  0  0  0  0  0  0  0
   -9.0990  -15.0140   10.6941 O   0  0  0  0  0  0  0  0  0  0  0  0
   -8.8031  -13.0100   11.9055 C   0  0  0  0  0  0  0  0  0  0  0  0
  1  2  1  0
  1  9  1  0
  2  3  2  0
  2  4  1  0
  4  5  2  0
  4  8  1  0
  5  6  1  0
  6  7  2  0
  7  8  1  0
  9 10  2  0
  9 13  1  0
 10 11  1  0
 11 12  1  0
 12 13  2  0
 13 14  1  0
 14 15  1  0
 15 16  2  0
 15 17  1  0
M  END
>  <Gold.Gold.Protein.RotatedWaterAtoms>  (266) 


>  <Gold.Id.Protein>  (266) 


>  <Gold.PLP.Chemscore.CHOScore>  (266) 
1.0000

>  <Gold.PLP.Chemscore.Hbond>  (266) 
1.8120

>  <Gold.PLP.Chemscore.Internal.Correction>  (266) 
0.0012

>  <Gold.PLP.Chemscore.Metal>  (266) 
0.0000

>  <Gold.PLP.Fitness>  (266) 
37.5758

>  <Gold.PLP.PLP>  (266) 
-29.9589

>  <Gold.PLP.ligand.clash>  (266) 
0.0000

>  <Gold.PLP.ligand.torsion>  (266) 
0.4101

>  <Gold.PLP.part.buried>  (266) 
-6.4570

>  <Gold.PLP.part.hbond>  (266) 
-3.6038

>  <Gold.PLP.part.metal>  (266) 
0.0000

>  <Gold.PLP.part.nonpolar>  (266) 
-19.5536

>  <Gold.PLP.part.repulsive>  (266) 
0.5345

>  <Gold.Protein.RotatedAtoms>  (266) 


>  <Gold.Protein.RotatedTorsions>  (266) 


>  <Gold.Protein.RotatedWaterAtoms>  (266) 


>  <Gold.Version>  (266) 
5.3.0

>  <PLP.Chemscore.CHOScore>  (266) 


>  <PLP.Chemscore.Hbond>  (266) 


>  <PLP.Chemscore.Internal.Correction>  (266) 


>  <PLP.Chemscore.Metal>  (266) 


>  <PLP.Fitness>  (266) 


>  <PLP.PLP>  (266) 


>  <PLP.ligand.clash>  (266) 


>  <PLP.ligand.torsion>  (266) 


>  <PLP.part.buried>  (266) 


>  <PLP.part.hbond>  (266) 


>  <PLP.part.metal>  (266) 


>  <PLP.part.nonpolar>  (266) 


>  <PLP.part.repulsive>  (266) 


>  <Version>  (266) 


$$$$
3266|Compound_2036|Compounds_3D_F|sdf|584|dock6|1
     RDKit          3D

 17 18  0  0  0  0  0  0  0  0999 V2000
   -9.0789  -16.2314   10.9949 N   0  0  0  0  0  0  0  0  0  0  0  0
   -7.9373  -15.6904   11.4651 C   0  0  0  0  0  0  0  0  0  0  0  0
   -6.9872  -16.4038   11.7201 O   0  0  0  0  0  0  0  0  0  0  0  0
   -7.8418  -14.2330   11.6698 C   0  0  0  0  0  0  0  0  0  0  0  0
   -6.7671  -13.5392   12.1567 C   0  0  0  0  0  0  0  0  0  0  0  0
   -7.2006  -12.1950   12.1480 C   0  0  0  0  0  0  0  0  0  0  0  0
   -8.4182  -12.1995   11.6873 N   0  0  0  0  0  0  0  0  0  0  0  0
   -8.7920  -13.3154   11.4101 O   0  0  0  0  0  0  0  0  0  0  0  0
   -9.1711  -17.6087   10.8063 C   0  0  0  0  0  0  0  0  0  0  0  0
   -8.2126  -18.4711   10.9992 N   0  0  0  0  0  0  0  0  0  0  0  0
   -8.7189  -19.7596   10.6953 O   0  0  0  0  0  0  0  0  0  0  0  0
  -10.0708  -19.6055   10.3016 N   0  0  0  0  0  0  0  0  0  0  0  0
  -10.3640  -18.3366   10.3644 C   0  0  0  0  0  0  0  0  0  0  0  0
  -11.6002  -17.7682   10.0555 N   0  0  0  0  0  0  0  0  0  0  0  0
  -12.5678  -18.5217    9.4978 C   0  0  0  0  0  0  0  0  0  0  0  0
  -12.3645  -19.6946    9.2643 O   0  0  0  0  0  0  0  0  0  0  0  0
  -13.9033  -17.9077    9.1644 C   0  0  0  0  0  0  0  0  0  0  0  0
  1  2  1  0
  1  9  1  0
  2  3  2  0
  2  4  1  0
  4  5  2  0
  4  8  1  0
  5  6  1  0
  6  7  2  0
  7  8  1  0
  9 10  2  0
  9 13  1  0
 10 11  1  0
 11 12  1  0
 12 13  2  0
 13 14  1  0
 14 15  1  0
 15 16  2  0
 15 17  1  0
M  END
>  <Gold.Gold.Protein.RotatedWaterAtoms>  (267) 


>  <Gold.Id.Protein>  (267) 


>  <Gold.PLP.Chemscore.CHOScore>  (267) 
0.0000

>  <Gold.PLP.Chemscore.Hbond>  (267) 
1.0000

>  <Gold.PLP.Chemscore.Internal.Correction>  (267) 
0.0007

>  <Gold.PLP.Chemscore.Metal>  (267) 
0.0000

>  <Gold.PLP.Fitness>  (267) 
36.5932

>  <Gold.PLP.PLP>  (267) 
-33.6288

>  <Gold.PLP.ligand.clash>  (267) 
0.0000

>  <Gold.PLP.ligand.torsion>  (267) 
0.0182

>  <Gold.PLP.part.buried>  (267) 
-8.9504

>  <Gold.PLP.part.hbond>  (267) 
-2.0000

>  <Gold.PLP.part.metal>  (267) 
0.0000

>  <Gold.PLP.part.nonpolar>  (267) 
-23.2370

>  <Gold.PLP.part.repulsive>  (267) 
0.3503

>  <Gold.Protein.RotatedAtoms>  (267) 


>  <Gold.Protein.RotatedTorsions>  (267) 


>  <Gold.Protein.RotatedWaterAtoms>  (267) 


>  <Gold.Version>  (267) 
5.3.0

>  <PLP.Chemscore.CHOScore>  (267) 


>  <PLP.Chemscore.Hbond>  (267) 


>  <PLP.Chemscore.Internal.Correction>  (267) 


>  <PLP.Chemscore.Metal>  (267) 


>  <PLP.Fitness>  (267) 


>  <PLP.PLP>  (267) 


>  <PLP.ligand.clash>  (267) 


>  <PLP.ligand.torsion>  (267) 


>  <PLP.part.buried>  (267) 


>  <PLP.part.hbond>  (267) 


>  <PLP.part.metal>  (267) 


>  <PLP.part.nonpolar>  (267) 


>  <PLP.part.repulsive>  (267) 


>  <Version>  (267) 


$$$$
3267|Compound_2036|Compounds_3D_F|sdf|584|dock7|1
     RDKit          3D

 17 18  0  0  0  0  0  0  0  0999 V2000
   -7.0805  -17.6535   11.2192 N   0  0  0  0  0  0  0  0  0  0  0  0
   -8.0326  -18.5656   10.9386 C   0  0  0  0  0  0  0  0  0  0  0  0
   -7.7366  -19.5961   10.3668 O   0  0  0  0  0  0  0  0  0  0  0  0
   -9.4330  -18.3124   11.3258 C   0  0  0  0  0  0  0  0  0  0  0  0
  -10.5246  -19.0755   11.0104 C   0  0  0  0  0  0  0  0  0  0  0  0
  -11.6007  -18.3943   11.6209 C   0  0  0  0  0  0  0  0  0  0  0  0
  -11.0939  -17.3499   12.2102 N   0  0  0  0  0  0  0  0  0  0  0  0
   -9.8953  -17.2873   12.0658 O   0  0  0  0  0  0  0  0  0  0  0  0
   -5.7584  -17.8901   10.8489 C   0  0  0  0  0  0  0  0  0  0  0  0
   -5.2784  -19.0221   10.4154 N   0  0  0  0  0  0  0  0  0  0  0  0
   -3.8982  -18.8368   10.1514 O   0  0  0  0  0  0  0  0  0  0  0  0
   -3.5807  -17.4915   10.4613 N   0  0  0  0  0  0  0  0  0  0  0  0
   -4.6713  -16.9074   10.8731 C   0  0  0  0  0  0  0  0  0  0  0  0
   -4.7820  -15.5762   11.2759 N   0  0  0  0  0  0  0  0  0  0  0  0
   -5.5190  -15.2587   12.3581 C   0  0  0  0  0  0  0  0  0  0  0  0
   -6.0863  -16.1303   12.9827 O   0  0  0  0  0  0  0  0  0  0  0  0
   -5.6383  -13.8207   12.7933 C   0  0  0  0  0  0  0  0  0  0  0  0
  1  2  1  0
  1  9  1  0
  2  3  2  0
  2  4  1  0
  4  5  2  0
  4  8  1  0
  5  6  1  0
  6  7  2  0
  7  8  1  0
  9 10  2  0
  9 13  1  0
 10 11  1  0
 11 12  1  0
 12 13  2  0
 13 14  1  0
 14 15  1  0
 15 16  2  0
 15 17  1  0
M  END
>  <Gold.Gold.Protein.RotatedWaterAtoms>  (268) 


>  <Gold.Id.Protein>  (268) 


>  <Gold.PLP.Chemscore.CHOScore>  (268) 
0.0000

>  <Gold.PLP.Chemscore.Hbond>  (268) 
2.7938

>  <Gold.PLP.Chemscore.Internal.Correction>  (268) 
0.0007

>  <Gold.PLP.Chemscore.Metal>  (268) 
0.0000

>  <Gold.PLP.Fitness>  (268) 
36.4461

>  <Gold.PLP.PLP>  (268) 
-28.8152

>  <Gold.PLP.ligand.clash>  (268) 
0.0000

>  <Gold.PLP.ligand.torsion>  (268) 
0.3755

>  <Gold.PLP.part.buried>  (268) 
-6.4061

>  <Gold.PLP.part.hbond>  (268) 
-4.0367

>  <Gold.PLP.part.metal>  (268) 
0.0000

>  <Gold.PLP.part.nonpolar>  (268) 
-19.7884

>  <Gold.PLP.part.repulsive>  (268) 
0.3788

>  <Gold.Protein.RotatedAtoms>  (268) 


>  <Gold.Protein.RotatedTorsions>  (268) 


>  <Gold.Protein.RotatedWaterAtoms>  (268) 


>  <Gold.Version>  (268) 
5.3.0

>  <PLP.Chemscore.CHOScore>  (268) 


>  <PLP.Chemscore.Hbond>  (268) 


>  <PLP.Chemscore.Internal.Correction>  (268) 


>  <PLP.Chemscore.Metal>  (268) 


>  <PLP.Fitness>  (268) 


>  <PLP.PLP>  (268) 


>  <PLP.ligand.clash>  (268) 


>  <PLP.ligand.torsion>  (268) 


>  <PLP.part.buried>  (268) 


>  <PLP.part.hbond>  (268) 


>  <PLP.part.metal>  (268) 


>  <PLP.part.nonpolar>  (268) 


>  <PLP.part.repulsive>  (268) 


>  <Version>  (268) 


$$$$
3268|Compound_2036|Compounds_3D_F|sdf|584|dock8|1
     RDKit          3D

 17 18  0  0  0  0  0  0  0  0999 V2000
   -9.0405  -16.4884   11.0171 N   0  0  0  0  0  0  0  0  0  0  0  0
   -7.8570  -15.9836   11.4192 C   0  0  0  0  0  0  0  0  0  0  0  0
   -6.8878  -16.7102   11.5146 O   0  0  0  0  0  0  0  0  0  0  0  0
   -7.7391  -14.5496   11.7429 C   0  0  0  0  0  0  0  0  0  0  0  0
   -6.6193  -13.8938   12.1781 C   0  0  0  0  0  0  0  0  0  0  0  0
   -7.0496  -12.5576   12.3343 C   0  0  0  0  0  0  0  0  0  0  0  0
   -8.3079  -12.5304   12.0016 N   0  0  0  0  0  0  0  0  0  0  0  0
   -8.7096  -13.6199   11.6648 O   0  0  0  0  0  0  0  0  0  0  0  0
   -9.1534  -17.8440   10.7160 C   0  0  0  0  0  0  0  0  0  0  0  0
   -8.1788  -18.7100   10.7188 N   0  0  0  0  0  0  0  0  0  0  0  0
   -8.7163  -19.9712   10.3592 O   0  0  0  0  0  0  0  0  0  0  0  0
  -10.1046  -19.7967   10.1384 N   0  0  0  0  0  0  0  0  0  0  0  0
  -10.3890  -18.5418   10.3492 C   0  0  0  0  0  0  0  0  0  0  0  0
  -11.6526  -17.9611   10.2367 N   0  0  0  0  0  0  0  0  0  0  0  0
  -12.6901  -18.6885    9.7786 C   0  0  0  0  0  0  0  0  0  0  0  0
  -12.5257  -19.8485    9.4641 O   0  0  0  0  0  0  0  0  0  0  0  0
  -14.0552  -18.0612    9.6574 C   0  0  0  0  0  0  0  0  0  0  0  0
  1  2  1  0
  1  9  1  0
  2  3  2  0
  2  4  1  0
  4  5  2  0
  4  8  1  0
  5  6  1  0
  6  7  2  0
  7  8  1  0
  9 10  2  0
  9 13  1  0
 10 11  1  0
 11 12  1  0
 12 13  2  0
 13 14  1  0
 14 15  1  0
 15 16  2  0
 15 17  1  0
M  END
>  <Gold.Gold.Protein.RotatedWaterAtoms>  (269) 


>  <Gold.Id.Protein>  (269) 


>  <Gold.PLP.Chemscore.CHOScore>  (269) 
0.0000

>  <Gold.PLP.Chemscore.Hbond>  (269) 
1.2389

>  <Gold.PLP.Chemscore.Internal.Correction>  (269) 
0.0004

>  <Gold.PLP.Chemscore.Metal>  (269) 
0.0000

>  <Gold.PLP.Fitness>  (269) 
34.8152

>  <Gold.PLP.PLP>  (269) 
-31.1199

>  <Gold.PLP.ligand.clash>  (269) 
0.0000

>  <Gold.PLP.ligand.torsion>  (269) 
0.0109

>  <Gold.PLP.part.buried>  (269) 
-9.2705

>  <Gold.PLP.part.hbond>  (269) 
-1.9285

>  <Gold.PLP.part.metal>  (269) 
0.0000

>  <Gold.PLP.part.nonpolar>  (269) 
-20.9788

>  <Gold.PLP.part.repulsive>  (269) 
0.3090

>  <Gold.Protein.RotatedAtoms>  (269) 


>  <Gold.Protein.RotatedTorsions>  (269) 


>  <Gold.Protein.RotatedWaterAtoms>  (269) 


>  <Gold.Version>  (269) 
5.3.0

>  <PLP.Chemscore.CHOScore>  (269) 


>  <PLP.Chemscore.Hbond>  (269) 


>  <PLP.Chemscore.Internal.Correction>  (269) 


>  <PLP.Chemscore.Metal>  (269) 


>  <PLP.Fitness>  (269) 


>  <PLP.PLP>  (269) 


>  <PLP.ligand.clash>  (269) 


>  <PLP.ligand.torsion>  (269) 


>  <PLP.part.buried>  (269) 


>  <PLP.part.hbond>  (269) 


>  <PLP.part.metal>  (269) 


>  <PLP.part.nonpolar>  (269) 


>  <PLP.part.repulsive>  (269) 


>  <Version>  (269) 


$$$$
3269|Compound_2036|Compounds_3D_F|sdf|584|dock9|1
     RDKit          3D

 17 18  0  0  0  0  0  0  0  0999 V2000
  -10.3100  -17.5717   10.0590 N   0  0  0  0  0  0  0  0  0  0  0  0
  -10.2282  -18.7754   10.6602 C   0  0  0  0  0  0  0  0  0  0  0  0
   -9.2791  -19.5014   10.4393 O   0  0  0  0  0  0  0  0  0  0  0  0
  -11.2906  -19.2107   11.5860 C   0  0  0  0  0  0  0  0  0  0  0  0
  -12.4588  -18.5542   11.8646 C   0  0  0  0  0  0  0  0  0  0  0  0
  -13.1029  -19.3933   12.8005 C   0  0  0  0  0  0  0  0  0  0  0  0
  -12.3159  -20.4129   12.9897 N   0  0  0  0  0  0  0  0  0  0  0  0
  -11.3100  -20.3367   12.3235 O   0  0  0  0  0  0  0  0  0  0  0  0
   -9.3090  -17.1624    9.1805 C   0  0  0  0  0  0  0  0  0  0  0  0
   -8.7230  -17.9117    8.2890 N   0  0  0  0  0  0  0  0  0  0  0  0
   -7.7706  -17.1132    7.6076 O   0  0  0  0  0  0  0  0  0  0  0  0
   -7.8295  -15.8112    8.1623 N   0  0  0  0  0  0  0  0  0  0  0  0
   -8.7401  -15.8144    9.0956 C   0  0  0  0  0  0  0  0  0  0  0  0
   -9.1044  -14.7226    9.8842 N   0  0  0  0  0  0  0  0  0  0  0  0
   -8.7034  -14.6554   11.1686 C   0  0  0  0  0  0  0  0  0  0  0  0
   -8.0254  -15.5441   11.6397 O   0  0  0  0  0  0  0  0  0  0  0  0
   -9.0968  -13.4757   12.0203 C   0  0  0  0  0  0  0  0  0  0  0  0
  1  2  1  0
  1  9  1  0
  2  3  2  0
  2  4  1  0
  4  5  2  0
  4  8  1  0
  5  6  1  0
  6  7  2  0
  7  8  1  0
  9 10  2  0
  9 13  1  0
 10 11  1  0
 11 12  1  0
 12 13  2  0
 13 14  1  0
 14 15  1  0
 15 16  2  0
 15 17  1  0
M  END
>  <Gold.Gold.Protein.RotatedWaterAtoms>  (270) 


>  <Gold.Id.Protein>  (270) 


>  <Gold.PLP.Chemscore.CHOScore>  (270) 
1.0000

>  <Gold.PLP.Chemscore.Hbond>  (270) 
1.9729

>  <Gold.PLP.Chemscore.Internal.Correction>  (270) 
0.0004

>  <Gold.PLP.Chemscore.Metal>  (270) 
0.0000

>  <Gold.PLP.Fitness>  (270) 
34.4556

>  <Gold.PLP.PLP>  (270) 
-27.6017

>  <Gold.PLP.ligand.clash>  (270) 
0.0000

>  <Gold.PLP.ligand.torsion>  (270) 
1.0326

>  <Gold.PLP.part.buried>  (270) 
-4.2212

>  <Gold.PLP.part.hbond>  (270) 
-4.0000

>  <Gold.PLP.part.metal>  (270) 
0.0000

>  <Gold.PLP.part.nonpolar>  (270) 
-19.6120

>  <Gold.PLP.part.repulsive>  (270) 
0.4532

>  <Gold.Protein.RotatedAtoms>  (270) 


>  <Gold.Protein.RotatedTorsions>  (270) 


>  <Gold.Protein.RotatedWaterAtoms>  (270) 


>  <Gold.Version>  (270) 
5.3.0

>  <PLP.Chemscore.CHOScore>  (270) 


>  <PLP.Chemscore.Hbond>  (270) 


>  <PLP.Chemscore.Internal.Correction>  (270) 


>  <PLP.Chemscore.Metal>  (270) 


>  <PLP.Fitness>  (270) 


>  <PLP.PLP>  (270) 


>  <PLP.ligand.clash>  (270) 


>  <PLP.ligand.torsion>  (270) 


>  <PLP.part.buried>  (270) 


>  <PLP.part.hbond>  (270) 


>  <PLP.part.metal>  (270) 


>  <PLP.part.nonpolar>  (270) 


>  <PLP.part.repulsive>  (270) 


>  <Version>  (270) 


$$$$
3270|Compound_2037|Compounds_3D_F|sdf|585|dock1|1
     RDKit          3D

 18 19  0  0  0  0  0  0  0  0999 V2000
   -8.4343  -16.4115   12.0230 N   0  0  0  0  0  0  0  0  0  0  0  0
   -8.8736  -17.6120   11.5953 C   0  0  0  0  0  0  0  0  0  0  0  0
   -8.0803  -18.4439   11.2015 O   0  0  0  0  0  0  0  0  0  0  0  0
  -10.3161  -17.9146   11.6058 C   0  0  0  0  0  0  0  0  0  0  0  0
  -10.9724  -18.8191   10.8155 C   0  0  0  0  0  0  0  0  0  0  0  0
  -12.3191  -18.7135   11.2278 C   0  0  0  0  0  0  0  0  0  0  0  0
  -12.3512  -17.8148   12.1673 N   0  0  0  0  0  0  0  0  0  0  0  0
  -11.2536  -17.3617   12.3981 O   0  0  0  0  0  0  0  0  0  0  0  0
   -7.0886  -16.1262   12.0091 C   0  0  0  0  0  0  0  0  0  0  0  0
   -6.4929  -14.8628   12.0067 C   0  0  0  0  0  0  0  0  0  0  0  0
   -5.0982  -15.1590   11.9892 C   0  0  0  0  0  0  0  0  0  0  0  0
   -5.0009  -16.4539   11.9834 N   0  0  0  0  0  0  0  0  0  0  0  0
   -6.0758  -17.0034   12.0001 O   0  0  0  0  0  0  0  0  0  0  0  0
   -7.1438  -13.5485   12.0179 C   0  0  0  0  0  0  0  0  0  0  0  0
   -8.3007  -13.4461   12.3792 O   0  0  0  0  0  0  0  0  0  0  0  0
   -6.4600  -12.4534   11.6293 O   0  0  0  0  0  0  0  0  0  0  0  0
   -6.8293  -11.1919   12.2455 C   0  0  0  0  0  0  0  0  0  0  0  0
   -8.1116  -10.6639   11.5995 C   0  0  0  0  0  0  0  0  0  0  0  0
  1  2  1  0
  1  9  1  0
  2  3  2  0
  2  4  1  0
  4  5  2  0
  4  8  1  0
  5  6  1  0
  6  7  2  0
  7  8  1  0
  9 10  2  0
  9 13  1  0
 10 11  1  0
 10 14  1  0
 11 12  2  0
 12 13  1  0
 14 15  2  0
 14 16  1  0
 16 17  1  0
 17 18  1  0
M  END
>  <Gold.Gold.Protein.RotatedWaterAtoms>  (271) 


>  <Gold.Id.Protein>  (271) 


>  <Gold.PLP.Chemscore.CHOScore>  (271) 
1.7625

>  <Gold.PLP.Chemscore.Hbond>  (271) 
1.5120

>  <Gold.PLP.Chemscore.Internal.Correction>  (271) 
0.0443

>  <Gold.PLP.Chemscore.Metal>  (271) 
0.0000

>  <Gold.PLP.Fitness>  (271) 
48.1997

>  <Gold.PLP.PLP>  (271) 
-40.3059

>  <Gold.PLP.ligand.clash>  (271) 
0.0000

>  <Gold.PLP.ligand.torsion>  (271) 
0.9870

>  <Gold.PLP.part.buried>  (271) 
-5.9585

>  <Gold.PLP.part.hbond>  (271) 
-4.4329

>  <Gold.PLP.part.metal>  (271) 
0.0000

>  <Gold.PLP.part.nonpolar>  (271) 
-29.5208

>  <Gold.PLP.part.repulsive>  (271) 
0.6218

>  <Gold.Protein.RotatedAtoms>  (271) 


>  <Gold.Protein.RotatedTorsions>  (271) 


>  <Gold.Protein.RotatedWaterAtoms>  (271) 


>  <Gold.Version>  (271) 
5.3.0

>  <PLP.Chemscore.CHOScore>  (271) 


>  <PLP.Chemscore.Hbond>  (271) 


>  <PLP.Chemscore.Internal.Correction>  (271) 


>  <PLP.Chemscore.Metal>  (271) 


>  <PLP.Fitness>  (271) 


>  <PLP.PLP>  (271) 


>  <PLP.ligand.clash>  (271) 


>  <PLP.ligand.torsion>  (271) 


>  <PLP.part.buried>  (271) 


>  <PLP.part.hbond>  (271) 


>  <PLP.part.metal>  (271) 


>  <PLP.part.nonpolar>  (271) 


>  <PLP.part.repulsive>  (271) 


>  <Version>  (271) 


$$$$
3271|Compound_2037|Compounds_3D_F|sdf|585|dock2|1
     RDKit          3D

 18 19  0  0  0  0  0  0  0  0999 V2000
   -8.5091  -16.2542   12.2479 N   0  0  0  0  0  0  0  0  0  0  0  0
   -8.9669  -17.4309   11.7758 C   0  0  0  0  0  0  0  0  0  0  0  0
   -8.1936  -18.2326   11.2901 O   0  0  0  0  0  0  0  0  0  0  0  0
  -10.4053  -17.7442   11.8492 C   0  0  0  0  0  0  0  0  0  0  0  0
  -11.0464  -18.8054   11.2694 C   0  0  0  0  0  0  0  0  0  0  0  0
  -12.3960  -18.6329   11.6484 C   0  0  0  0  0  0  0  0  0  0  0  0
  -12.4436  -17.5551   12.3746 N   0  0  0  0  0  0  0  0  0  0  0  0
  -11.3530  -17.0481   12.5045 O   0  0  0  0  0  0  0  0  0  0  0  0
   -7.1674  -15.9586   12.1754 C   0  0  0  0  0  0  0  0  0  0  0  0
   -6.5855  -14.6929   12.0741 C   0  0  0  0  0  0  0  0  0  0  0  0
   -5.1889  -14.9775   12.0340 C   0  0  0  0  0  0  0  0  0  0  0  0
   -5.0780  -16.2692   12.1085 N   0  0  0  0  0  0  0  0  0  0  0  0
   -6.1461  -16.8258   12.1925 O   0  0  0  0  0  0  0  0  0  0  0  0
   -7.2497  -13.3863   12.0204 C   0  0  0  0  0  0  0  0  0  0  0  0
   -8.4237  -13.2883   12.3229 O   0  0  0  0  0  0  0  0  0  0  0  0
   -6.5592  -12.2935   11.6372 O   0  0  0  0  0  0  0  0  0  0  0  0
   -6.9709  -11.0213   12.2024 C   0  0  0  0  0  0  0  0  0  0  0  0
   -8.2007  -10.5038   11.4539 C   0  0  0  0  0  0  0  0  0  0  0  0
  1  2  1  0
  1  9  1  0
  2  3  2  0
  2  4  1  0
  4  5  2  0
  4  8  1  0
  5  6  1  0
  6  7  2  0
  7  8  1  0
  9 10  2  0
  9 13  1  0
 10 11  1  0
 10 14  1  0
 11 12  2  0
 12 13  1  0
 14 15  2  0
 14 16  1  0
 16 17  1  0
 17 18  1  0
M  END
>  <Gold.Gold.Protein.RotatedWaterAtoms>  (272) 


>  <Gold.Id.Protein>  (272) 


>  <Gold.PLP.Chemscore.CHOScore>  (272) 
1.8083

>  <Gold.PLP.Chemscore.Hbond>  (272) 
1.3443

>  <Gold.PLP.Chemscore.Internal.Correction>  (272) 
0.0091

>  <Gold.PLP.Chemscore.Metal>  (272) 
0.0000

>  <Gold.PLP.Fitness>  (272) 
47.1206

>  <Gold.PLP.PLP>  (272) 
-39.1919

>  <Gold.PLP.ligand.clash>  (272) 
0.0000

>  <Gold.PLP.ligand.torsion>  (272) 
0.7691

>  <Gold.PLP.part.buried>  (272) 
-2.8868

>  <Gold.PLP.part.hbond>  (272) 
-4.9658

>  <Gold.PLP.part.metal>  (272) 
0.0000

>  <Gold.PLP.part.nonpolar>  (272) 
-31.4562

>  <Gold.PLP.part.repulsive>  (272) 
0.6993

>  <Gold.Protein.RotatedAtoms>  (272) 


>  <Gold.Protein.RotatedTorsions>  (272) 


>  <Gold.Protein.RotatedWaterAtoms>  (272) 


>  <Gold.Version>  (272) 
5.3.0

>  <PLP.Chemscore.CHOScore>  (272) 


>  <PLP.Chemscore.Hbond>  (272) 


>  <PLP.Chemscore.Internal.Correction>  (272) 


>  <PLP.Chemscore.Metal>  (272) 


>  <PLP.Fitness>  (272) 


>  <PLP.PLP>  (272) 


>  <PLP.ligand.clash>  (272) 


>  <PLP.ligand.torsion>  (272) 


>  <PLP.part.buried>  (272) 


>  <PLP.part.hbond>  (272) 


>  <PLP.part.metal>  (272) 


>  <PLP.part.nonpolar>  (272) 


>  <PLP.part.repulsive>  (272) 


>  <Version>  (272) 


$$$$
3272|Compound_2037|Compounds_3D_F|sdf|585|dock3|1
     RDKit          3D

 18 19  0  0  0  0  0  0  0  0999 V2000
   -9.4604  -16.6870   11.6128 N   0  0  0  0  0  0  0  0  0  0  0  0
   -9.9037  -17.9396   11.3859 C   0  0  0  0  0  0  0  0  0  0  0  0
   -9.1670  -18.7619   10.8784 O   0  0  0  0  0  0  0  0  0  0  0  0
  -11.2819  -18.3108   11.7538 C   0  0  0  0  0  0  0  0  0  0  0  0
  -11.9433  -19.4593   11.4119 C   0  0  0  0  0  0  0  0  0  0  0  0
  -13.2125  -19.3100   12.0132 C   0  0  0  0  0  0  0  0  0  0  0  0
  -13.2025  -18.1615   12.6232 N   0  0  0  0  0  0  0  0  0  0  0  0
  -12.1426  -17.5919   12.4985 O   0  0  0  0  0  0  0  0  0  0  0  0
   -8.1758  -16.3379   11.2654 C   0  0  0  0  0  0  0  0  0  0  0  0
   -7.6180  -15.0574   11.2692 C   0  0  0  0  0  0  0  0  0  0  0  0
   -6.2814  -15.2818   10.8260 C   0  0  0  0  0  0  0  0  0  0  0  0
   -6.1761  -16.5593   10.6182 N   0  0  0  0  0  0  0  0  0  0  0  0
   -7.1973  -17.1574   10.8574 O   0  0  0  0  0  0  0  0  0  0  0  0
   -8.2532  -13.7879   11.6383 C   0  0  0  0  0  0  0  0  0  0  0  0
   -9.4545  -13.7401   11.8221 O   0  0  0  0  0  0  0  0  0  0  0  0
   -7.5058  -12.6741   11.7753 O   0  0  0  0  0  0  0  0  0  0  0  0
   -8.1824  -11.4008   11.6064 C   0  0  0  0  0  0  0  0  0  0  0  0
   -7.2060  -10.2606   11.9009 C   0  0  0  0  0  0  0  0  0  0  0  0
  1  2  1  0
  1  9  1  0
  2  3  2  0
  2  4  1  0
  4  5  2  0
  4  8  1  0
  5  6  1  0
  6  7  2  0
  7  8  1  0
  9 10  2  0
  9 13  1  0
 10 11  1  0
 10 14  1  0
 11 12  2  0
 12 13  1  0
 14 15  2  0
 14 16  1  0
 16 17  1  0
 17 18  1  0
M  END
>  <Gold.Gold.Protein.RotatedWaterAtoms>  (273) 


>  <Gold.Id.Protein>  (273) 


>  <Gold.PLP.Chemscore.CHOScore>  (273) 
1.2641

>  <Gold.PLP.Chemscore.Hbond>  (273) 
1.9675

>  <Gold.PLP.Chemscore.Internal.Correction>  (273) 
0.0091

>  <Gold.PLP.Chemscore.Metal>  (273) 
0.0000

>  <Gold.PLP.Fitness>  (273) 
47.4982

>  <Gold.PLP.PLP>  (273) 
-38.7204

>  <Gold.PLP.ligand.clash>  (273) 
0.0000

>  <Gold.PLP.ligand.torsion>  (273) 
0.4630

>  <Gold.PLP.part.buried>  (273) 
-7.4809

>  <Gold.PLP.part.hbond>  (273) 
-4.4704

>  <Gold.PLP.part.metal>  (273) 
0.0000

>  <Gold.PLP.part.nonpolar>  (273) 
-26.9728

>  <Gold.PLP.part.repulsive>  (273) 
0.6135

>  <Gold.Protein.RotatedAtoms>  (273) 


>  <Gold.Protein.RotatedTorsions>  (273) 


>  <Gold.Protein.RotatedWaterAtoms>  (273) 


>  <Gold.Version>  (273) 
5.3.0

>  <PLP.Chemscore.CHOScore>  (273) 


>  <PLP.Chemscore.Hbond>  (273) 


>  <PLP.Chemscore.Internal.Correction>  (273) 


>  <PLP.Chemscore.Metal>  (273) 


>  <PLP.Fitness>  (273) 


>  <PLP.PLP>  (273) 


>  <PLP.ligand.clash>  (273) 


>  <PLP.ligand.torsion>  (273) 


>  <PLP.part.buried>  (273) 


>  <PLP.part.hbond>  (273) 


>  <PLP.part.metal>  (273) 


>  <PLP.part.nonpolar>  (273) 


>  <PLP.part.repulsive>  (273) 


>  <Version>  (273) 


$$$$
3273|Compound_2038|Compounds_3D_F|sdf|586|dock1|1
     RDKit          3D

 33 37  0  0  0  0  0  0  0  0999 V2000
  -10.5641  -19.1864    9.9855 N   0  0  0  0  0  0  0  0  0  0  0  0
  -11.7654  -18.7226    9.5862 C   0  0  0  0  0  0  0  0  0  0  0  0
  -11.9538  -17.5245    9.4951 O   0  0  0  0  0  0  0  0  0  0  0  0
  -12.8496  -19.6672    9.2596 C   0  0  0  0  0  0  0  0  0  0  0  0
  -14.1520  -19.3577    8.9755 C   0  0  0  0  0  0  0  0  0  0  0  0
  -14.7538  -20.6134    8.7392 C   0  0  0  0  0  0  0  0  0  0  0  0
  -13.8197  -21.5073    8.8931 N   0  0  0  0  0  0  0  0  0  0  0  0
  -12.7563  -21.0077    9.1762 O   0  0  0  0  0  0  0  0  0  0  0  0
   -9.5475  -18.2994   10.2973 C   0  0  0  0  0  0  0  0  0  0  0  0
   -9.7007  -17.0576   10.6971 N   0  0  0  0  0  0  0  0  0  0  0  0
   -8.5009  -16.4980   10.9074 C   0  0  0  0  0  0  0  0  0  0  0  0
   -7.5629  -17.3803   10.6433 N   0  0  0  0  0  0  0  0  0  0  0  0
   -8.2120  -18.5619   10.2503 N   0  0  0  0  0  0  0  0  0  0  0  0
   -7.6112  -19.7589    9.8789 C   0  0  0  0  0  0  0  0  0  0  0  0
   -8.3387  -20.7825    9.4571 N   0  0  0  0  0  0  0  0  0  0  0  0
   -7.7806  -21.9285    9.1008 C   0  0  0  0  0  0  0  0  0  0  0  0
   -6.4849  -22.1323    9.1376 N   0  0  0  0  0  0  0  0  0  0  0  0
   -5.6559  -21.1617    9.5479 C   0  0  0  0  0  0  0  0  0  0  0  0
   -6.2079  -19.9142    9.9358 C   0  0  0  0  0  0  0  0  0  0  0  0
   -5.3637  -18.8834   10.3696 C   0  0  0  0  0  0  0  0  0  0  0  0
   -4.0148  -19.0928   10.4148 C   0  0  0  0  0  0  0  0  0  0  0  0
   -3.1939  -18.0939   10.8355 O   0  0  0  0  0  0  0  0  0  0  0  0
   -3.7286  -17.1720   11.7868 C   0  0  0  0  0  0  0  0  0  0  0  0
   -3.4676  -20.3255   10.0316 C   0  0  0  0  0  0  0  0  0  0  0  0
   -2.1218  -20.5074   10.0857 O   0  0  0  0  0  0  0  0  0  0  0  0
   -1.6564  -21.8353   10.3339 C   0  0  0  0  0  0  0  0  0  0  0  0
   -4.2684  -21.3454    9.5996 C   0  0  0  0  0  0  0  0  0  0  0  0
   -8.2685  -15.1052   11.3634 C   0  0  0  0  0  0  0  0  0  0  0  0
   -9.3016  -14.2948   11.5554 N   0  0  0  0  0  0  0  0  0  0  0  0
   -9.1381  -13.0513   11.9586 C   0  0  0  0  0  0  0  0  0  0  0  0
   -7.8749  -12.5436   12.1988 C   0  0  0  0  0  0  0  0  0  0  0  0
   -6.7666  -13.3569   12.0101 C   0  0  0  0  0  0  0  0  0  0  0  0
   -6.9679  -14.6608   11.5909 C   0  0  0  0  0  0  0  0  0  0  0  0
  1  2  1  0
  1  9  1  0
  2  3  2  0
  2  4  1  0
  4  5  2  0
  4  8  1  0
  5  6  1  0
  6  7  2  0
  7  8  1  0
  9 10  2  0
  9 13  1  0
 10 11  1  0
 11 12  2  0
 11 28  1  0
 12 13  1  0
 13 14  1  0
 14 15  2  0
 14 19  1  0
 15 16  1  0
 16 17  2  0
 17 18  1  0
 18 19  2  0
 18 27  1  0
 19 20  1  0
 20 21  2  0
 21 22  1  0
 21 24  1  0
 22 23  1  0
 24 25  1  0
 24 27  2  0
 25 26  1  0
 28 29  2  0
 28 33  1  0
 29 30  1  0
 30 31  2  0
 31 32  1  0
 32 33  2  0
M  END
>  <Gold.Gold.Protein.RotatedWaterAtoms>  (274) 


>  <Gold.Id.Protein>  (274) 


>  <Gold.PLP.Chemscore.CHOScore>  (274) 
1.0000

>  <Gold.PLP.Chemscore.Hbond>  (274) 
1.0000

>  <Gold.PLP.Chemscore.Internal.Correction>  (274) 
2.0163

>  <Gold.PLP.Chemscore.Metal>  (274) 
0.0000

>  <Gold.PLP.Fitness>  (274) 
60.2739

>  <Gold.PLP.PLP>  (274) 
-56.6780

>  <Gold.PLP.ligand.clash>  (274) 
2.5886

>  <Gold.PLP.ligand.torsion>  (274) 
0.9159

>  <Gold.PLP.part.buried>  (274) 
-9.9080

>  <Gold.PLP.part.hbond>  (274) 
-3.0000

>  <Gold.PLP.part.metal>  (274) 
0.0000

>  <Gold.PLP.part.nonpolar>  (274) 
-43.9929

>  <Gold.PLP.part.repulsive>  (274) 
0.3292

>  <Gold.Protein.RotatedAtoms>  (274) 


>  <Gold.Protein.RotatedTorsions>  (274) 


>  <Gold.Protein.RotatedWaterAtoms>  (274) 


>  <Gold.Version>  (274) 
5.3.0

>  <PLP.Chemscore.CHOScore>  (274) 


>  <PLP.Chemscore.Hbond>  (274) 


>  <PLP.Chemscore.Internal.Correction>  (274) 


>  <PLP.Chemscore.Metal>  (274) 


>  <PLP.Fitness>  (274) 


>  <PLP.PLP>  (274) 


>  <PLP.ligand.clash>  (274) 


>  <PLP.ligand.torsion>  (274) 


>  <PLP.part.buried>  (274) 


>  <PLP.part.hbond>  (274) 


>  <PLP.part.metal>  (274) 


>  <PLP.part.nonpolar>  (274) 


>  <PLP.part.repulsive>  (274) 


>  <Version>  (274) 


$$$$
3274|Compound_2038|Compounds_3D_F|sdf|586|dock2|1
     RDKit          3D

 33 37  0  0  0  0  0  0  0  0999 V2000
   -7.6444  -14.9331   11.8043 N   0  0  0  0  0  0  0  0  0  0  0  0
   -8.2972  -13.7574   11.7102 C   0  0  0  0  0  0  0  0  0  0  0  0
   -9.4844  -13.7417   11.4465 O   0  0  0  0  0  0  0  0  0  0  0  0
   -7.5727  -12.4916   11.9277 C   0  0  0  0  0  0  0  0  0  0  0  0
   -6.3400  -12.3378   12.5019 C   0  0  0  0  0  0  0  0  0  0  0  0
   -6.1213  -10.9431   12.4641 C   0  0  0  0  0  0  0  0  0  0  0  0
   -7.1743  -10.4174   11.9071 N   0  0  0  0  0  0  0  0  0  0  0  0
   -7.9888  -11.2546   11.5970 O   0  0  0  0  0  0  0  0  0  0  0  0
   -8.3233  -16.1216   11.5951 C   0  0  0  0  0  0  0  0  0  0  0  0
   -9.6280  -16.2730   11.5734 N   0  0  0  0  0  0  0  0  0  0  0  0
   -9.9312  -17.5586   11.3448 C   0  0  0  0  0  0  0  0  0  0  0  0
   -8.8184  -18.2465   11.2169 N   0  0  0  0  0  0  0  0  0  0  0  0
   -7.7572  -17.3393   11.3686 N   0  0  0  0  0  0  0  0  0  0  0  0
   -6.3990  -17.6279   11.3083 C   0  0  0  0  0  0  0  0  0  0  0  0
   -5.5104  -16.8431   11.8993 N   0  0  0  0  0  0  0  0  0  0  0  0
   -4.2140  -17.1049   11.8498 C   0  0  0  0  0  0  0  0  0  0  0  0
   -3.7203  -18.1458   11.2217 N   0  0  0  0  0  0  0  0  0  0  0  0
   -4.5320  -19.0061   10.5903 C   0  0  0  0  0  0  0  0  0  0  0  0
   -5.9300  -18.7691   10.6197 C   0  0  0  0  0  0  0  0  0  0  0  0
   -6.8002  -19.6523    9.9669 C   0  0  0  0  0  0  0  0  0  0  0  0
   -6.2905  -20.7342    9.3072 C   0  0  0  0  0  0  0  0  0  0  0  0
   -7.1333  -21.5923    8.6731 O   0  0  0  0  0  0  0  0  0  0  0  0
   -8.3492  -21.0464    8.1591 C   0  0  0  0  0  0  0  0  0  0  0  0
   -4.9087  -20.9698    9.2773 C   0  0  0  0  0  0  0  0  0  0  0  0
   -4.4278  -22.0541    8.6139 O   0  0  0  0  0  0  0  0  0  0  0  0
   -3.2208  -22.6354    9.1107 C   0  0  0  0  0  0  0  0  0  0  0  0
   -4.0387  -20.1268    9.9104 C   0  0  0  0  0  0  0  0  0  0  0  0
  -11.3032  -18.1163   11.2527 C   0  0  0  0  0  0  0  0  0  0  0  0
  -12.1049  -18.0690   12.3090 N   0  0  0  0  0  0  0  0  0  0  0  0
  -13.3292  -18.5539   12.2689 C   0  0  0  0  0  0  0  0  0  0  0  0
  -13.8258  -19.1323   11.1157 C   0  0  0  0  0  0  0  0  0  0  0  0
  -13.0207  -19.2029    9.9877 C   0  0  0  0  0  0  0  0  0  0  0  0
  -11.7403  -18.6810   10.0565 C   0  0  0  0  0  0  0  0  0  0  0  0
  1  2  1  0
  1  9  1  0
  2  3  2  0
  2  4  1  0
  4  5  2  0
  4  8  1  0
  5  6  1  0
  6  7  2  0
  7  8  1  0
  9 10  2  0
  9 13  1  0
 10 11  1  0
 11 12  2  0
 11 28  1  0
 12 13  1  0
 13 14  1  0
 14 15  2  0
 14 19  1  0
 15 16  1  0
 16 17  2  0
 17 18  1  0
 18 19  2  0
 18 27  1  0
 19 20  1  0
 20 21  2  0
 21 22  1  0
 21 24  1  0
 22 23  1  0
 24 25  1  0
 24 27  2  0
 25 26  1  0
 28 29  2  0
 28 33  1  0
 29 30  1  0
 30 31  2  0
 31 32  1  0
 32 33  2  0
M  END
>  <Gold.Gold.Protein.RotatedWaterAtoms>  (275) 


>  <Gold.Id.Protein>  (275) 


>  <Gold.PLP.Chemscore.CHOScore>  (275) 
1.8718

>  <Gold.PLP.Chemscore.Hbond>  (275) 
1.8320

>  <Gold.PLP.Chemscore.Internal.Correction>  (275) 
2.0163

>  <Gold.PLP.Chemscore.Metal>  (275) 
0.0000

>  <Gold.PLP.Fitness>  (275) 
68.1322

>  <Gold.PLP.PLP>  (275) 
-59.6669

>  <Gold.PLP.ligand.clash>  (275) 
0.0000

>  <Gold.PLP.ligand.torsion>  (275) 
2.3311

>  <Gold.PLP.part.buried>  (275) 
-10.4713

>  <Gold.PLP.part.hbond>  (275) 
-3.4894

>  <Gold.PLP.part.metal>  (275) 
0.0000

>  <Gold.PLP.part.nonpolar>  (275) 
-47.0620

>  <Gold.PLP.part.repulsive>  (275) 
0.7762

>  <Gold.Protein.RotatedAtoms>  (275) 


>  <Gold.Protein.RotatedTorsions>  (275) 


>  <Gold.Protein.RotatedWaterAtoms>  (275) 


>  <Gold.Version>  (275) 
5.3.0

>  <PLP.Chemscore.CHOScore>  (275) 


>  <PLP.Chemscore.Hbond>  (275) 


>  <PLP.Chemscore.Internal.Correction>  (275) 


>  <PLP.Chemscore.Metal>  (275) 


>  <PLP.Fitness>  (275) 


>  <PLP.PLP>  (275) 


>  <PLP.ligand.clash>  (275) 


>  <PLP.ligand.torsion>  (275) 


>  <PLP.part.buried>  (275) 


>  <PLP.part.hbond>  (275) 


>  <PLP.part.metal>  (275) 


>  <PLP.part.nonpolar>  (275) 


>  <PLP.part.repulsive>  (275) 


>  <Version>  (275) 


$$$$
3275|Compound_2038|Compounds_3D_F|sdf|586|dock3|1
     RDKit          3D

 33 37  0  0  0  0  0  0  0  0999 V2000
  -10.6572  -18.5873   10.8279 N   0  0  0  0  0  0  0  0  0  0  0  0
  -11.6951  -18.2887   10.0210 C   0  0  0  0  0  0  0  0  0  0  0  0
  -11.6537  -17.2947    9.3213 O   0  0  0  0  0  0  0  0  0  0  0  0
  -12.8791  -19.1669    9.9863 C   0  0  0  0  0  0  0  0  0  0  0  0
  -14.0008  -19.0049    9.2192 C   0  0  0  0  0  0  0  0  0  0  0  0
  -14.8104  -20.1086    9.5672 C   0  0  0  0  0  0  0  0  0  0  0  0
  -14.1460  -20.7906   10.4554 N   0  0  0  0  0  0  0  0  0  0  0  0
  -13.0725  -20.2922   10.6997 O   0  0  0  0  0  0  0  0  0  0  0  0
   -9.5474  -17.7600   10.8644 C   0  0  0  0  0  0  0  0  0  0  0  0
   -9.5222  -16.5190   11.2941 N   0  0  0  0  0  0  0  0  0  0  0  0
   -8.2804  -16.0263   11.1837 C   0  0  0  0  0  0  0  0  0  0  0  0
   -7.4942  -16.9516   10.6801 N   0  0  0  0  0  0  0  0  0  0  0  0
   -8.2872  -18.0909   10.4679 N   0  0  0  0  0  0  0  0  0  0  0  0
   -7.8712  -19.3110    9.9483 C   0  0  0  0  0  0  0  0  0  0  0  0
   -8.7469  -20.1734    9.4541 N   0  0  0  0  0  0  0  0  0  0  0  0
   -8.3655  -21.3392    8.9567 C   0  0  0  0  0  0  0  0  0  0  0  0
   -7.1108  -21.7208    8.9161 N   0  0  0  0  0  0  0  0  0  0  0  0
   -6.1424  -20.9232    9.3890 C   0  0  0  0  0  0  0  0  0  0  0  0
   -6.5026  -19.6618    9.9280 C   0  0  0  0  0  0  0  0  0  0  0  0
   -5.5100  -18.8095   10.4299 C   0  0  0  0  0  0  0  0  0  0  0  0
   -4.2032  -19.2048   10.3947 C   0  0  0  0  0  0  0  0  0  0  0  0
   -3.2386  -18.3792   10.8813 O   0  0  0  0  0  0  0  0  0  0  0  0
   -3.6227  -17.4710   11.9149 C   0  0  0  0  0  0  0  0  0  0  0  0
   -3.8456  -20.4515    9.8621 C   0  0  0  0  0  0  0  0  0  0  0  0
   -2.5376  -20.8202    9.8388 O   0  0  0  0  0  0  0  0  0  0  0  0
   -2.1265  -21.6849    8.7783 C   0  0  0  0  0  0  0  0  0  0  0  0
   -4.7936  -21.2992    9.3613 C   0  0  0  0  0  0  0  0  0  0  0  0
   -7.8607  -14.6555   11.5668 C   0  0  0  0  0  0  0  0  0  0  0  0
   -6.5991  -14.4248   11.9074 N   0  0  0  0  0  0  0  0  0  0  0  0
   -6.1866  -13.2229   12.2549 C   0  0  0  0  0  0  0  0  0  0  0  0
   -7.0599  -12.1515   12.2759 C   0  0  0  0  0  0  0  0  0  0  0  0
   -8.3884  -12.3485   11.9272 C   0  0  0  0  0  0  0  0  0  0  0  0
   -8.7935  -13.6208   11.5613 C   0  0  0  0  0  0  0  0  0  0  0  0
  1  2  1  0
  1  9  1  0
  2  3  2  0
  2  4  1  0
  4  5  2  0
  4  8  1  0
  5  6  1  0
  6  7  2  0
  7  8  1  0
  9 10  2  0
  9 13  1  0
 10 11  1  0
 11 12  2  0
 11 28  1  0
 12 13  1  0
 13 14  1  0
 14 15  2  0
 14 19  1  0
 15 16  1  0
 16 17  2  0
 17 18  1  0
 18 19  2  0
 18 27  1  0
 19 20  1  0
 20 21  2  0
 21 22  1  0
 21 24  1  0
 22 23  1  0
 24 25  1  0
 24 27  2  0
 25 26  1  0
 28 29  2  0
 28 33  1  0
 29 30  1  0
 30 31  2  0
 31 32  1  0
 32 33  2  0
M  END
>  <Gold.Gold.Protein.RotatedWaterAtoms>  (276) 


>  <Gold.Id.Protein>  (276) 


>  <Gold.PLP.Chemscore.CHOScore>  (276) 
1.0000

>  <Gold.PLP.Chemscore.Hbond>  (276) 
1.0000

>  <Gold.PLP.Chemscore.Internal.Correction>  (276) 
1.9630

>  <Gold.PLP.Chemscore.Metal>  (276) 
0.0000

>  <Gold.PLP.Fitness>  (276) 
60.0994

>  <Gold.PLP.PLP>  (276) 
-56.5078

>  <Gold.PLP.ligand.clash>  (276) 
0.7614

>  <Gold.PLP.ligand.torsion>  (276) 
1.8050

>  <Gold.PLP.part.buried>  (276) 
-8.8603

>  <Gold.PLP.part.hbond>  (276) 
-2.0000

>  <Gold.PLP.part.metal>  (276) 
0.0000

>  <Gold.PLP.part.nonpolar>  (276) 
-46.1531

>  <Gold.PLP.part.repulsive>  (276) 
0.3475

>  <Gold.Protein.RotatedAtoms>  (276) 


>  <Gold.Protein.RotatedTorsions>  (276) 


>  <Gold.Protein.RotatedWaterAtoms>  (276) 


>  <Gold.Version>  (276) 
5.3.0

>  <PLP.Chemscore.CHOScore>  (276) 


>  <PLP.Chemscore.Hbond>  (276) 


>  <PLP.Chemscore.Internal.Correction>  (276) 


>  <PLP.Chemscore.Metal>  (276) 


>  <PLP.Fitness>  (276) 


>  <PLP.PLP>  (276) 


>  <PLP.ligand.clash>  (276) 


>  <PLP.ligand.torsion>  (276) 


>  <PLP.part.buried>  (276) 


>  <PLP.part.hbond>  (276) 


>  <PLP.part.metal>  (276) 


>  <PLP.part.nonpolar>  (276) 


>  <PLP.part.repulsive>  (276) 


>  <Version>  (276) 


$$$$
3276|Compound_2038|Compounds_3D_F|sdf|586|dock4|1
     RDKit          3D

 33 37  0  0  0  0  0  0  0  0999 V2000
  -10.6806  -17.6935    9.9919 N   0  0  0  0  0  0  0  0  0  0  0  0
  -11.5278  -18.2730   10.8659 C   0  0  0  0  0  0  0  0  0  0  0  0
  -11.2362  -18.3331   12.0451 O   0  0  0  0  0  0  0  0  0  0  0  0
  -12.8073  -18.8328   10.3926 C   0  0  0  0  0  0  0  0  0  0  0  0
  -13.2270  -18.9422    9.0946 C   0  0  0  0  0  0  0  0  0  0  0  0
  -14.5030  -19.5381    9.2012 C   0  0  0  0  0  0  0  0  0  0  0  0
  -14.7221  -19.7210   10.4717 N   0  0  0  0  0  0  0  0  0  0  0  0
  -13.7960  -19.3435   11.1503 O   0  0  0  0  0  0  0  0  0  0  0  0
   -9.4768  -17.1724   10.4352 C   0  0  0  0  0  0  0  0  0  0  0  0
   -9.2578  -15.9271   10.7909 N   0  0  0  0  0  0  0  0  0  0  0  0
   -7.9789  -15.7809   11.1652 C   0  0  0  0  0  0  0  0  0  0  0  0
   -7.3633  -16.9369   11.0526 N   0  0  0  0  0  0  0  0  0  0  0  0
   -8.3119  -17.8615   10.5864 N   0  0  0  0  0  0  0  0  0  0  0  0
   -8.1019  -19.2099   10.3232 C   0  0  0  0  0  0  0  0  0  0  0  0
   -9.1138  -20.0647   10.3052 N   0  0  0  0  0  0  0  0  0  0  0  0
   -8.9290  -21.3515   10.0567 C   0  0  0  0  0  0  0  0  0  0  0  0
   -7.7478  -21.8679    9.8127 N   0  0  0  0  0  0  0  0  0  0  0  0
   -6.6550  -21.0912    9.8053 C   0  0  0  0  0  0  0  0  0  0  0  0
   -6.8042  -19.7043   10.0620 C   0  0  0  0  0  0  0  0  0  0  0  0
   -5.6781  -18.8705   10.0613 C   0  0  0  0  0  0  0  0  0  0  0  0
   -4.4458  -19.4046    9.8132 C   0  0  0  0  0  0  0  0  0  0  0  0
   -3.3518  -18.5971    9.8120 O   0  0  0  0  0  0  0  0  0  0  0  0
   -3.3906  -17.4508   10.6636 C   0  0  0  0  0  0  0  0  0  0  0  0
   -4.2967  -20.7754    9.5591 C   0  0  0  0  0  0  0  0  0  0  0  0
   -3.0590  -21.2811    9.3148 O   0  0  0  0  0  0  0  0  0  0  0  0
   -2.8255  -22.6374    9.6986 C   0  0  0  0  0  0  0  0  0  0  0  0
   -5.3794  -21.6095    9.5487 C   0  0  0  0  0  0  0  0  0  0  0  0
   -7.3571  -14.5164   11.6303 C   0  0  0  0  0  0  0  0  0  0  0  0
   -6.1301  -14.5335   12.1354 N   0  0  0  0  0  0  0  0  0  0  0  0
   -5.5430  -13.4334   12.5604 C   0  0  0  0  0  0  0  0  0  0  0  0
   -6.1890  -12.2131   12.4934 C   0  0  0  0  0  0  0  0  0  0  0  0
   -7.4736  -12.1500   11.9725 C   0  0  0  0  0  0  0  0  0  0  0  0
   -8.0645  -13.3206   11.5286 C   0  0  0  0  0  0  0  0  0  0  0  0
  1  2  1  0
  1  9  1  0
  2  3  2  0
  2  4  1  0
  4  5  2  0
  4  8  1  0
  5  6  1  0
  6  7  2  0
  7  8  1  0
  9 10  2  0
  9 13  1  0
 10 11  1  0
 11 12  2  0
 11 28  1  0
 12 13  1  0
 13 14  1  0
 14 15  2  0
 14 19  1  0
 15 16  1  0
 16 17  2  0
 17 18  1  0
 18 19  2  0
 18 27  1  0
 19 20  1  0
 20 21  2  0
 21 22  1  0
 21 24  1  0
 22 23  1  0
 24 25  1  0
 24 27  2  0
 25 26  1  0
 28 29  2  0
 28 33  1  0
 29 30  1  0
 30 31  2  0
 31 32  1  0
 32 33  2  0
M  END
>  <Gold.Gold.Protein.RotatedWaterAtoms>  (277) 


>  <Gold.Id.Protein>  (277) 


>  <Gold.PLP.Chemscore.CHOScore>  (277) 
1.8556

>  <Gold.PLP.Chemscore.Hbond>  (277) 
0.5983

>  <Gold.PLP.Chemscore.Internal.Correction>  (277) 
1.9630

>  <Gold.PLP.Chemscore.Metal>  (277) 
0.0000

>  <Gold.PLP.Fitness>  (277) 
63.3623

>  <Gold.PLP.PLP>  (277) 
-57.5659

>  <Gold.PLP.ligand.clash>  (277) 
0.0062

>  <Gold.PLP.ligand.torsion>  (277) 
1.7611

>  <Gold.PLP.part.buried>  (277) 
-8.7926

>  <Gold.PLP.part.hbond>  (277) 
-2.4918

>  <Gold.PLP.part.metal>  (277) 
0.0000

>  <Gold.PLP.part.nonpolar>  (277) 
-45.4636

>  <Gold.PLP.part.repulsive>  (277) 
0.5307

>  <Gold.Protein.RotatedAtoms>  (277) 


>  <Gold.Protein.RotatedTorsions>  (277) 


>  <Gold.Protein.RotatedWaterAtoms>  (277) 


>  <Gold.Version>  (277) 
5.3.0

>  <PLP.Chemscore.CHOScore>  (277) 


>  <PLP.Chemscore.Hbond>  (277) 


>  <PLP.Chemscore.Internal.Correction>  (277) 


>  <PLP.Chemscore.Metal>  (277) 


>  <PLP.Fitness>  (277) 


>  <PLP.PLP>  (277) 


>  <PLP.ligand.clash>  (277) 


>  <PLP.ligand.torsion>  (277) 


>  <PLP.part.buried>  (277) 


>  <PLP.part.hbond>  (277) 


>  <PLP.part.metal>  (277) 


>  <PLP.part.nonpolar>  (277) 


>  <PLP.part.repulsive>  (277) 


>  <Version>  (277) 


$$$$
3277|Compound_2038|Compounds_3D_F|sdf|586|dock5|1
     RDKit          3D

 33 37  0  0  0  0  0  0  0  0999 V2000
  -10.7097  -19.1119   10.3700 N   0  0  0  0  0  0  0  0  0  0  0  0
  -11.8749  -18.7135    9.8215 C   0  0  0  0  0  0  0  0  0  0  0  0
  -12.0205  -17.5553    9.4798 O   0  0  0  0  0  0  0  0  0  0  0  0
  -12.9718  -19.6813    9.6352 C   0  0  0  0  0  0  0  0  0  0  0  0
  -14.2042  -19.4334    9.0942 C   0  0  0  0  0  0  0  0  0  0  0  0
  -14.8562  -20.6849    9.1514 C   0  0  0  0  0  0  0  0  0  0  0  0
  -14.0121  -21.5189    9.6876 N   0  0  0  0  0  0  0  0  0  0  0  0
  -12.9608  -20.9881    9.9590 O   0  0  0  0  0  0  0  0  0  0  0  0
   -9.6814  -18.2021   10.5498 C   0  0  0  0  0  0  0  0  0  0  0  0
   -9.8106  -16.9605   10.9584 N   0  0  0  0  0  0  0  0  0  0  0  0
   -8.6060  -16.3750   11.0168 C   0  0  0  0  0  0  0  0  0  0  0  0
   -7.6891  -17.2403   10.6446 N   0  0  0  0  0  0  0  0  0  0  0  0
   -8.3565  -18.4379   10.3409 N   0  0  0  0  0  0  0  0  0  0  0  0
   -7.7807  -19.6255    9.9053 C   0  0  0  0  0  0  0  0  0  0  0  0
   -8.5289  -20.6080    9.4260 N   0  0  0  0  0  0  0  0  0  0  0  0
   -7.9946  -21.7446    9.0082 C   0  0  0  0  0  0  0  0  0  0  0  0
   -6.7039  -21.9786    9.0367 N   0  0  0  0  0  0  0  0  0  0  0  0
   -5.8553  -21.0507    9.5018 C   0  0  0  0  0  0  0  0  0  0  0  0
   -6.3813  -19.8146    9.9567 C   0  0  0  0  0  0  0  0  0  0  0  0
   -5.5163  -18.8281   10.4487 C   0  0  0  0  0  0  0  0  0  0  0  0
   -4.1725  -19.0693   10.4853 C   0  0  0  0  0  0  0  0  0  0  0  0
   -3.3314  -18.1134   10.9624 O   0  0  0  0  0  0  0  0  0  0  0  0
   -3.8592  -17.2129   11.9378 C   0  0  0  0  0  0  0  0  0  0  0  0
   -3.6510  -20.2907   10.0359 C   0  0  0  0  0  0  0  0  0  0  0  0
   -2.3096  -20.5048   10.0830 O   0  0  0  0  0  0  0  0  0  0  0  0
   -1.8742  -21.8544   10.2575 C   0  0  0  0  0  0  0  0  0  0  0  0
   -4.4723  -21.2674    9.5464 C   0  0  0  0  0  0  0  0  0  0  0  0
   -8.3489  -14.9741   11.4331 C   0  0  0  0  0  0  0  0  0  0  0  0
   -9.3685  -14.1779   11.7287 N   0  0  0  0  0  0  0  0  0  0  0  0
   -9.1830  -12.9280   12.1011 C   0  0  0  0  0  0  0  0  0  0  0  0
   -7.9099  -12.3982   12.1989 C   0  0  0  0  0  0  0  0  0  0  0  0
   -6.8151  -13.1961   11.8986 C   0  0  0  0  0  0  0  0  0  0  0  0
   -7.0389  -14.5073   11.5148 C   0  0  0  0  0  0  0  0  0  0  0  0
  1  2  1  0
  1  9  1  0
  2  3  2  0
  2  4  1  0
  4  5  2  0
  4  8  1  0
  5  6  1  0
  6  7  2  0
  7  8  1  0
  9 10  2  0
  9 13  1  0
 10 11  1  0
 11 12  2  0
 11 28  1  0
 12 13  1  0
 13 14  1  0
 14 15  2  0
 14 19  1  0
 15 16  1  0
 16 17  2  0
 17 18  1  0
 18 19  2  0
 18 27  1  0
 19 20  1  0
 20 21  2  0
 21 22  1  0
 21 24  1  0
 22 23  1  0
 24 25  1  0
 24 27  2  0
 25 26  1  0
 28 29  2  0
 28 33  1  0
 29 30  1  0
 30 31  2  0
 31 32  1  0
 32 33  2  0
M  END
>  <Gold.Gold.Protein.RotatedWaterAtoms>  (278) 


>  <Gold.Id.Protein>  (278) 


>  <Gold.PLP.Chemscore.CHOScore>  (278) 
1.0000

>  <Gold.PLP.Chemscore.Hbond>  (278) 
1.0000

>  <Gold.PLP.Chemscore.Internal.Correction>  (278) 
1.9630

>  <Gold.PLP.Chemscore.Metal>  (278) 
0.0000

>  <Gold.PLP.Fitness>  (278) 
60.2878

>  <Gold.PLP.PLP>  (278) 
-56.4446

>  <Gold.PLP.ligand.clash>  (278) 
1.8620

>  <Gold.PLP.ligand.torsion>  (278) 
1.1289

>  <Gold.PLP.part.buried>  (278) 
-10.5230

>  <Gold.PLP.part.hbond>  (278) 
-3.0000

>  <Gold.PLP.part.metal>  (278) 
0.0000

>  <Gold.PLP.part.nonpolar>  (278) 
-43.7006

>  <Gold.PLP.part.repulsive>  (278) 
0.2620

>  <Gold.Protein.RotatedAtoms>  (278) 


>  <Gold.Protein.RotatedTorsions>  (278) 


>  <Gold.Protein.RotatedWaterAtoms>  (278) 


>  <Gold.Version>  (278) 
5.3.0

>  <PLP.Chemscore.CHOScore>  (278) 


>  <PLP.Chemscore.Hbond>  (278) 


>  <PLP.Chemscore.Internal.Correction>  (278) 


>  <PLP.Chemscore.Metal>  (278) 


>  <PLP.Fitness>  (278) 


>  <PLP.PLP>  (278) 


>  <PLP.ligand.clash>  (278) 


>  <PLP.ligand.torsion>  (278) 


>  <PLP.part.buried>  (278) 


>  <PLP.part.hbond>  (278) 


>  <PLP.part.metal>  (278) 


>  <PLP.part.nonpolar>  (278) 


>  <PLP.part.repulsive>  (278) 


>  <Version>  (278) 


$$$$
3278|Compound_2038|Compounds_3D_F|sdf|586|dock6|1
     RDKit          3D

 33 37  0  0  0  0  0  0  0  0999 V2000
   -7.9798  -14.4767   11.9815 N   0  0  0  0  0  0  0  0  0  0  0  0
   -8.6843  -13.4185   11.5328 C   0  0  0  0  0  0  0  0  0  0  0  0
   -9.7616  -13.5903   10.9949 O   0  0  0  0  0  0  0  0  0  0  0  0
   -8.1496  -12.0538   11.6948 C   0  0  0  0  0  0  0  0  0  0  0  0
   -8.7980  -10.8792   11.4250 C   0  0  0  0  0  0  0  0  0  0  0  0
   -7.8476   -9.8863   11.7501 C   0  0  0  0  0  0  0  0  0  0  0  0
   -6.7818  -10.5127   12.1591 N   0  0  0  0  0  0  0  0  0  0  0  0
   -6.9266  -11.7124   12.1423 O   0  0  0  0  0  0  0  0  0  0  0  0
   -8.4793  -15.7586   11.8249 C   0  0  0  0  0  0  0  0  0  0  0  0
   -9.7487  -16.0949   11.7922 N   0  0  0  0  0  0  0  0  0  0  0  0
   -9.8622  -17.4203   11.6267 C   0  0  0  0  0  0  0  0  0  0  0  0
   -8.6608  -17.9484   11.5512 N   0  0  0  0  0  0  0  0  0  0  0  0
   -7.7420  -16.8931   11.6706 N   0  0  0  0  0  0  0  0  0  0  0  0
   -6.3557  -16.9882   11.6452 C   0  0  0  0  0  0  0  0  0  0  0  0
   -5.6001  -16.0599   12.2128 N   0  0  0  0  0  0  0  0  0  0  0  0
   -4.2789  -16.1368   12.1959 C   0  0  0  0  0  0  0  0  0  0  0  0
   -3.6295  -17.1237   11.6251 N   0  0  0  0  0  0  0  0  0  0  0  0
   -4.2973  -18.1176   11.0220 C   0  0  0  0  0  0  0  0  0  0  0  0
   -5.7151  -18.0806   11.0183 C   0  0  0  0  0  0  0  0  0  0  0  0
   -6.4372  -19.1063   10.3939 C   0  0  0  0  0  0  0  0  0  0  0  0
   -5.7654  -20.1328    9.7937 C   0  0  0  0  0  0  0  0  0  0  0  0
   -6.4643  -21.1291    9.1873 O   0  0  0  0  0  0  0  0  0  0  0  0
   -7.7334  -20.7847    8.6293 C   0  0  0  0  0  0  0  0  0  0  0  0
   -4.3638  -20.1709    9.7966 C   0  0  0  0  0  0  0  0  0  0  0  0
   -3.7200  -21.2041    9.1923 O   0  0  0  0  0  0  0  0  0  0  0  0
   -2.4544  -21.5856    9.7347 C   0  0  0  0  0  0  0  0  0  0  0  0
   -3.6358  -19.1858   10.4031 C   0  0  0  0  0  0  0  0  0  0  0  0
  -11.1393  -18.1714   11.5439 C   0  0  0  0  0  0  0  0  0  0  0  0
  -12.1515  -17.8371   12.3342 N   0  0  0  0  0  0  0  0  0  0  0  0
  -13.3010  -18.4793   12.2927 C   0  0  0  0  0  0  0  0  0  0  0  0
  -13.4950  -19.5311   11.4168 C   0  0  0  0  0  0  0  0  0  0  0  0
  -12.4624  -19.9140   10.5727 C   0  0  0  0  0  0  0  0  0  0  0  0
  -11.2669  -19.2185   10.6340 C   0  0  0  0  0  0  0  0  0  0  0  0
  1  2  1  0
  1  9  1  0
  2  3  2  0
  2  4  1  0
  4  5  2  0
  4  8  1  0
  5  6  1  0
  6  7  2  0
  7  8  1  0
  9 10  2  0
  9 13  1  0
 10 11  1  0
 11 12  2  0
 11 28  1  0
 12 13  1  0
 13 14  1  0
 14 15  2  0
 14 19  1  0
 15 16  1  0
 16 17  2  0
 17 18  1  0
 18 19  2  0
 18 27  1  0
 19 20  1  0
 20 21  2  0
 21 22  1  0
 21 24  1  0
 22 23  1  0
 24 25  1  0
 24 27  2  0
 25 26  1  0
 28 29  2  0
 28 33  1  0
 29 30  1  0
 30 31  2  0
 31 32  1  0
 32 33  2  0
M  END
>  <Gold.Gold.Protein.RotatedWaterAtoms>  (279) 


>  <Gold.Id.Protein>  (279) 


>  <Gold.PLP.Chemscore.CHOScore>  (279) 
1.7673

>  <Gold.PLP.Chemscore.Hbond>  (279) 
1.7520

>  <Gold.PLP.Chemscore.Internal.Correction>  (279) 
1.9462

>  <Gold.PLP.Chemscore.Metal>  (279) 
0.0000

>  <Gold.PLP.Fitness>  (279) 
68.8956

>  <Gold.PLP.PLP>  (279) 
-60.0129

>  <Gold.PLP.ligand.clash>  (279) 
0.0000

>  <Gold.PLP.ligand.torsion>  (279) 
1.8108

>  <Gold.PLP.part.buried>  (279) 
-8.3163

>  <Gold.PLP.part.hbond>  (279) 
-3.6269

>  <Gold.PLP.part.metal>  (279) 
0.0000

>  <Gold.PLP.part.nonpolar>  (279) 
-48.7123

>  <Gold.PLP.part.repulsive>  (279) 
2.4666

>  <Gold.Protein.RotatedAtoms>  (279) 


>  <Gold.Protein.RotatedTorsions>  (279) 


>  <Gold.Protein.RotatedWaterAtoms>  (279) 


>  <Gold.Version>  (279) 
5.3.0

>  <PLP.Chemscore.CHOScore>  (279) 


>  <PLP.Chemscore.Hbond>  (279) 


>  <PLP.Chemscore.Internal.Correction>  (279) 


>  <PLP.Chemscore.Metal>  (279) 


>  <PLP.Fitness>  (279) 


>  <PLP.PLP>  (279) 


>  <PLP.ligand.clash>  (279) 


>  <PLP.ligand.torsion>  (279) 


>  <PLP.part.buried>  (279) 


>  <PLP.part.hbond>  (279) 


>  <PLP.part.metal>  (279) 


>  <PLP.part.nonpolar>  (279) 


>  <PLP.part.repulsive>  (279) 


>  <Version>  (279) 


$$$$
3279|Compound_2038|Compounds_3D_F|sdf|586|dock7|1
     RDKit          3D

 33 37  0  0  0  0  0  0  0  0999 V2000
   -7.8830  -14.5729   11.9593 N   0  0  0  0  0  0  0  0  0  0  0  0
   -8.5671  -13.4860   11.5492 C   0  0  0  0  0  0  0  0  0  0  0  0
   -9.6593  -13.6163   11.0303 O   0  0  0  0  0  0  0  0  0  0  0  0
   -7.9919  -12.1404   11.7305 C   0  0  0  0  0  0  0  0  0  0  0  0
   -6.8326  -11.8230   12.3848 C   0  0  0  0  0  0  0  0  0  0  0  0
   -6.7504  -10.4182   12.2643 C   0  0  0  0  0  0  0  0  0  0  0  0
   -7.8002  -10.0414   11.5923 N   0  0  0  0  0  0  0  0  0  0  0  0
   -8.4992  -10.9770   11.2815 O   0  0  0  0  0  0  0  0  0  0  0  0
   -8.4207  -15.8369   11.7846 C   0  0  0  0  0  0  0  0  0  0  0  0
   -9.6995  -16.1334   11.7394 N   0  0  0  0  0  0  0  0  0  0  0  0
   -9.8526  -17.4528   11.5579 C   0  0  0  0  0  0  0  0  0  0  0  0
   -8.6676  -18.0169   11.4844 N   0  0  0  0  0  0  0  0  0  0  0  0
   -7.7176  -16.9919   11.6223 N   0  0  0  0  0  0  0  0  0  0  0  0
   -6.3347  -17.1295   11.6052 C   0  0  0  0  0  0  0  0  0  0  0  0
   -5.5542  -16.2209   12.1710 N   0  0  0  0  0  0  0  0  0  0  0  0
   -4.2358  -16.3383   12.1620 C   0  0  0  0  0  0  0  0  0  0  0  0
   -3.6138  -17.3483   11.6011 N   0  0  0  0  0  0  0  0  0  0  0  0
   -4.3085  -18.3253   11.0007 C   0  0  0  0  0  0  0  0  0  0  0  0
   -5.7245  -18.2450   10.9889 C   0  0  0  0  0  0  0  0  0  0  0  0
   -6.4743  -19.2523   10.3671 C   0  0  0  0  0  0  0  0  0  0  0  0
   -5.8310  -20.3028    9.7773 C   0  0  0  0  0  0  0  0  0  0  0  0
   -6.5568  -21.2812    9.1734 O   0  0  0  0  0  0  0  0  0  0  0  0
   -7.8118  -20.9019    8.6061 C   0  0  0  0  0  0  0  0  0  0  0  0
   -4.4313  -20.3837    9.7882 C   0  0  0  0  0  0  0  0  0  0  0  0
   -3.8162  -21.4401    9.1942 O   0  0  0  0  0  0  0  0  0  0  0  0
   -2.5657  -21.8565    9.7460 C   0  0  0  0  0  0  0  0  0  0  0  0
   -3.6768  -19.4173   10.3924 C   0  0  0  0  0  0  0  0  0  0  0  0
  -11.1516  -18.1631   11.4578 C   0  0  0  0  0  0  0  0  0  0  0  0
  -12.1268  -17.8741   12.3101 N   0  0  0  0  0  0  0  0  0  0  0  0
  -13.2941  -18.4825   12.2557 C   0  0  0  0  0  0  0  0  0  0  0  0
  -13.5462  -19.4498   11.3009 C   0  0  0  0  0  0  0  0  0  0  0  0
  -12.5538  -19.7830   10.3901 C   0  0  0  0  0  0  0  0  0  0  0  0
  -11.3386  -19.1243   10.4670 C   0  0  0  0  0  0  0  0  0  0  0  0
  1  2  1  0
  1  9  1  0
  2  3  2  0
  2  4  1  0
  4  5  2  0
  4  8  1  0
  5  6  1  0
  6  7  2  0
  7  8  1  0
  9 10  2  0
  9 13  1  0
 10 11  1  0
 11 12  2  0
 11 28  1  0
 12 13  1  0
 13 14  1  0
 14 15  2  0
 14 19  1  0
 15 16  1  0
 16 17  2  0
 17 18  1  0
 18 19  2  0
 18 27  1  0
 19 20  1  0
 20 21  2  0
 21 22  1  0
 21 24  1  0
 22 23  1  0
 24 25  1  0
 24 27  2  0
 25 26  1  0
 28 29  2  0
 28 33  1  0
 29 30  1  0
 30 31  2  0
 31 32  1  0
 32 33  2  0
M  END
>  <Gold.Gold.Protein.RotatedWaterAtoms>  (280) 


>  <Gold.Id.Protein>  (280) 


>  <Gold.PLP.Chemscore.CHOScore>  (280) 
2.3475

>  <Gold.PLP.Chemscore.Hbond>  (280) 
1.8640

>  <Gold.PLP.Chemscore.Internal.Correction>  (280) 
1.9462

>  <Gold.PLP.Chemscore.Metal>  (280) 
0.0000

>  <Gold.PLP.Fitness>  (280) 
71.8004

>  <Gold.PLP.PLP>  (280) 
-60.9983

>  <Gold.PLP.ligand.clash>  (280) 
0.0000

>  <Gold.PLP.ligand.torsion>  (280) 
1.8893

>  <Gold.PLP.part.buried>  (280) 
-10.9277

>  <Gold.PLP.part.hbond>  (280) 
-4.8553

>  <Gold.PLP.part.metal>  (280) 
0.0000

>  <Gold.PLP.part.nonpolar>  (280) 
-47.5314

>  <Gold.PLP.part.repulsive>  (280) 
2.0912

>  <Gold.Protein.RotatedAtoms>  (280) 


>  <Gold.Protein.RotatedTorsions>  (280) 


>  <Gold.Protein.RotatedWaterAtoms>  (280) 


>  <Gold.Version>  (280) 
5.3.0

>  <PLP.Chemscore.CHOScore>  (280) 


>  <PLP.Chemscore.Hbond>  (280) 


>  <PLP.Chemscore.Internal.Correction>  (280) 


>  <PLP.Chemscore.Metal>  (280) 


>  <PLP.Fitness>  (280) 


>  <PLP.PLP>  (280) 


>  <PLP.ligand.clash>  (280) 


>  <PLP.ligand.torsion>  (280) 


>  <PLP.part.buried>  (280) 


>  <PLP.part.hbond>  (280) 


>  <PLP.part.metal>  (280) 


>  <PLP.part.nonpolar>  (280) 


>  <PLP.part.repulsive>  (280) 


>  <Version>  (280) 


$$$$
3280|Compound_2040|Compounds_3D_F|sdf|587|dock1|1
     RDKit          3D

 16 17  0  0  0  0  0  0  0  0999 V2000
   -4.5175  -12.1121   13.1056 O   0  0  0  0  0  0  0  0  0  0  0  0
   -5.7022  -12.2008   12.4701 C   0  0  0  0  0  0  0  0  0  0  0  0
   -6.3165  -11.1913   12.1864 O   0  0  0  0  0  0  0  0  0  0  0  0
   -6.2541  -13.5241   12.1193 C   0  0  0  0  0  0  0  0  0  0  0  0
   -7.4239  -14.0010   12.4955 N   0  0  0  0  0  0  0  0  0  0  0  0
   -7.5942  -15.2225   11.9968 C   0  0  0  0  0  0  0  0  0  0  0  0
   -6.5327  -15.5504   11.2912 N   0  0  0  0  0  0  0  0  0  0  0  0
   -5.6492  -14.4606   11.3513 N   0  0  0  0  0  0  0  0  0  0  0  0
   -8.7187  -16.0271   12.1917 N   0  0  0  0  0  0  0  0  0  0  0  0
   -8.8783  -17.1493   11.4630 C   0  0  0  0  0  0  0  0  0  0  0  0
   -8.0438  -17.4616   10.6355 O   0  0  0  0  0  0  0  0  0  0  0  0
  -10.0657  -18.0001   11.6691 C   0  0  0  0  0  0  0  0  0  0  0  0
  -10.1982  -19.3217   11.3395 C   0  0  0  0  0  0  0  0  0  0  0  0
  -11.5123  -19.6413   11.7461 C   0  0  0  0  0  0  0  0  0  0  0  0
  -12.0202  -18.5544   12.2506 N   0  0  0  0  0  0  0  0  0  0  0  0
  -11.2363  -17.6348   12.2245 O   0  0  0  0  0  0  0  0  0  0  0  0
  1  2  1  0
  2  3  2  0
  2  4  1  0
  4  5  2  0
  4  8  1  0
  5  6  1  0
  6  7  2  0
  6  9  1  0
  7  8  1  0
  9 10  1  0
 10 11  2  0
 10 12  1  0
 12 13  2  0
 12 16  1  0
 13 14  1  0
 14 15  2  0
 15 16  1  0
M  END
>  <Gold.Gold.Protein.RotatedWaterAtoms>  (281) 


>  <Gold.Id.Protein>  (281) 


>  <Gold.PLP.Chemscore.CHOScore>  (281) 
0.0000

>  <Gold.PLP.Chemscore.Hbond>  (281) 
3.0500

>  <Gold.PLP.Chemscore.Internal.Correction>  (281) 
0.0026

>  <Gold.PLP.Chemscore.Metal>  (281) 
0.0000

>  <Gold.PLP.Fitness>  (281) 
41.6177

>  <Gold.PLP.PLP>  (281) 
-35.0422

>  <Gold.PLP.ligand.clash>  (281) 
0.0000

>  <Gold.PLP.ligand.torsion>  (281) 
1.2886

>  <Gold.PLP.part.buried>  (281) 
-10.1362

>  <Gold.PLP.part.hbond>  (281) 
-6.7848

>  <Gold.PLP.part.metal>  (281) 
0.0000

>  <Gold.PLP.part.nonpolar>  (281) 
-18.9419

>  <Gold.PLP.part.repulsive>  (281) 
0.6988

>  <Gold.Protein.RotatedAtoms>  (281) 


>  <Gold.Protein.RotatedTorsions>  (281) 


>  <Gold.Protein.RotatedWaterAtoms>  (281) 


>  <Gold.Version>  (281) 
5.3.0

>  <PLP.Chemscore.CHOScore>  (281) 


>  <PLP.Chemscore.Hbond>  (281) 


>  <PLP.Chemscore.Internal.Correction>  (281) 


>  <PLP.Chemscore.Metal>  (281) 


>  <PLP.Fitness>  (281) 


>  <PLP.PLP>  (281) 


>  <PLP.ligand.clash>  (281) 


>  <PLP.ligand.torsion>  (281) 


>  <PLP.part.buried>  (281) 


>  <PLP.part.hbond>  (281) 


>  <PLP.part.metal>  (281) 


>  <PLP.part.nonpolar>  (281) 


>  <PLP.part.repulsive>  (281) 


>  <Version>  (281) 


$$$$
3281|Compound_2040|Compounds_3D_F|sdf|587|dock2|1
     RDKit          3D

 16 17  0  0  0  0  0  0  0  0999 V2000
   -4.3360  -12.1219   13.0944 O   0  0  0  0  0  0  0  0  0  0  0  0
   -5.5444  -12.1594   12.4997 C   0  0  0  0  0  0  0  0  0  0  0  0
   -6.1432  -11.1260   12.2751 O   0  0  0  0  0  0  0  0  0  0  0  0
   -6.1410  -13.4556   12.1220 C   0  0  0  0  0  0  0  0  0  0  0  0
   -7.3294  -13.8969   12.4829 N   0  0  0  0  0  0  0  0  0  0  0  0
   -7.5401  -15.1024   11.9612 C   0  0  0  0  0  0  0  0  0  0  0  0
   -6.4866  -15.4555   11.2557 N   0  0  0  0  0  0  0  0  0  0  0  0
   -5.5652  -14.3992   11.3405 N   0  0  0  0  0  0  0  0  0  0  0  0
   -8.6938  -15.8696   12.1352 N   0  0  0  0  0  0  0  0  0  0  0  0
   -8.8105  -17.0605   11.5156 C   0  0  0  0  0  0  0  0  0  0  0  0
   -7.9118  -17.4674   10.8047 O   0  0  0  0  0  0  0  0  0  0  0  0
  -10.0288  -17.8717   11.6998 C   0  0  0  0  0  0  0  0  0  0  0  0
  -10.2031  -19.1844   11.3547 C   0  0  0  0  0  0  0  0  0  0  0  0
  -11.5319  -19.4625   11.7436 C   0  0  0  0  0  0  0  0  0  0  0  0
  -12.0077  -18.3639   12.2540 N   0  0  0  0  0  0  0  0  0  0  0  0
  -11.1923  -17.4717   12.2462 O   0  0  0  0  0  0  0  0  0  0  0  0
  1  2  1  0
  2  3  2  0
  2  4  1  0
  4  5  2  0
  4  8  1  0
  5  6  1  0
  6  7  2  0
  6  9  1  0
  7  8  1  0
  9 10  1  0
 10 11  2  0
 10 12  1  0
 12 13  2  0
 12 16  1  0
 13 14  1  0
 14 15  2  0
 15 16  1  0
M  END
>  <Gold.Gold.Protein.RotatedWaterAtoms>  (282) 


>  <Gold.Id.Protein>  (282) 


>  <Gold.PLP.Chemscore.CHOScore>  (282) 
0.0000

>  <Gold.PLP.Chemscore.Hbond>  (282) 
3.0000

>  <Gold.PLP.Chemscore.Internal.Correction>  (282) 
0.0026

>  <Gold.PLP.Chemscore.Metal>  (282) 
0.0000

>  <Gold.PLP.Fitness>  (282) 
42.5508

>  <Gold.PLP.PLP>  (282) 
-35.7077

>  <Gold.PLP.ligand.clash>  (282) 
0.0000

>  <Gold.PLP.ligand.torsion>  (282) 
1.0798

>  <Gold.PLP.part.buried>  (282) 
-10.1471

>  <Gold.PLP.part.hbond>  (282) 
-6.5424

>  <Gold.PLP.part.metal>  (282) 
0.0000

>  <Gold.PLP.part.nonpolar>  (282) 
-19.3211

>  <Gold.PLP.part.repulsive>  (282) 
0.7295

>  <Gold.Protein.RotatedAtoms>  (282) 


>  <Gold.Protein.RotatedTorsions>  (282) 


>  <Gold.Protein.RotatedWaterAtoms>  (282) 


>  <Gold.Version>  (282) 
5.3.0

>  <PLP.Chemscore.CHOScore>  (282) 


>  <PLP.Chemscore.Hbond>  (282) 


>  <PLP.Chemscore.Internal.Correction>  (282) 


>  <PLP.Chemscore.Metal>  (282) 


>  <PLP.Fitness>  (282) 


>  <PLP.PLP>  (282) 


>  <PLP.ligand.clash>  (282) 


>  <PLP.ligand.torsion>  (282) 


>  <PLP.part.buried>  (282) 


>  <PLP.part.hbond>  (282) 


>  <PLP.part.metal>  (282) 


>  <PLP.part.nonpolar>  (282) 


>  <PLP.part.repulsive>  (282) 


>  <Version>  (282) 


$$$$
3282|Compound_2040|Compounds_3D_F|sdf|587|dock3|1
     RDKit          3D

 16 17  0  0  0  0  0  0  0  0999 V2000
   -4.4359  -12.2017   13.0862 O   0  0  0  0  0  0  0  0  0  0  0  0
   -5.6488  -12.1895   12.4997 C   0  0  0  0  0  0  0  0  0  0  0  0
   -6.2250  -11.1351   12.3176 O   0  0  0  0  0  0  0  0  0  0  0  0
   -6.2780  -13.4569   12.0795 C   0  0  0  0  0  0  0  0  0  0  0  0
   -7.4575  -13.9021   12.4640 N   0  0  0  0  0  0  0  0  0  0  0  0
   -7.7055  -15.0761   11.8895 C   0  0  0  0  0  0  0  0  0  0  0  0
   -6.6854  -15.4045   11.1254 N   0  0  0  0  0  0  0  0  0  0  0  0
   -5.7466  -14.3653   11.2280 N   0  0  0  0  0  0  0  0  0  0  0  0
   -8.8622  -15.8373   12.0694 N   0  0  0  0  0  0  0  0  0  0  0  0
   -8.9164  -17.1006   11.6034 C   0  0  0  0  0  0  0  0  0  0  0  0
   -7.9585  -17.5779   11.0260 O   0  0  0  0  0  0  0  0  0  0  0  0
  -10.1379  -17.9054   11.7938 C   0  0  0  0  0  0  0  0  0  0  0  0
  -10.2862  -19.2447   11.5552 C   0  0  0  0  0  0  0  0  0  0  0  0
  -11.6319  -19.5020   11.8975 C   0  0  0  0  0  0  0  0  0  0  0  0
  -12.1402  -18.3685   12.2856 N   0  0  0  0  0  0  0  0  0  0  0  0
  -11.3307  -17.4719   12.2427 O   0  0  0  0  0  0  0  0  0  0  0  0
  1  2  1  0
  2  3  2  0
  2  4  1  0
  4  5  2  0
  4  8  1  0
  5  6  1  0
  6  7  2  0
  6  9  1  0
  7  8  1  0
  9 10  1  0
 10 11  2  0
 10 12  1  0
 12 13  2  0
 12 16  1  0
 13 14  1  0
 14 15  2  0
 15 16  1  0
M  END
>  <Gold.Gold.Protein.RotatedWaterAtoms>  (283) 


>  <Gold.Id.Protein>  (283) 


>  <Gold.PLP.Chemscore.CHOScore>  (283) 
0.0000

>  <Gold.PLP.Chemscore.Hbond>  (283) 
3.0000

>  <Gold.PLP.Chemscore.Internal.Correction>  (283) 
0.0026

>  <Gold.PLP.Chemscore.Metal>  (283) 
0.0000

>  <Gold.PLP.Fitness>  (283) 
42.6520

>  <Gold.PLP.PLP>  (283) 
-35.8962

>  <Gold.PLP.ligand.clash>  (283) 
0.0000

>  <Gold.PLP.ligand.torsion>  (283) 
1.1234

>  <Gold.PLP.part.buried>  (283) 
-9.7871

>  <Gold.PLP.part.hbond>  (283) 
-6.9363

>  <Gold.PLP.part.metal>  (283) 
0.0000

>  <Gold.PLP.part.nonpolar>  (283) 
-19.5896

>  <Gold.PLP.part.repulsive>  (283) 
0.8252

>  <Gold.Protein.RotatedAtoms>  (283) 


>  <Gold.Protein.RotatedTorsions>  (283) 


>  <Gold.Protein.RotatedWaterAtoms>  (283) 


>  <Gold.Version>  (283) 
5.3.0

>  <PLP.Chemscore.CHOScore>  (283) 


>  <PLP.Chemscore.Hbond>  (283) 


>  <PLP.Chemscore.Internal.Correction>  (283) 


>  <PLP.Chemscore.Metal>  (283) 


>  <PLP.Fitness>  (283) 


>  <PLP.PLP>  (283) 


>  <PLP.ligand.clash>  (283) 


>  <PLP.ligand.torsion>  (283) 


>  <PLP.part.buried>  (283) 


>  <PLP.part.hbond>  (283) 


>  <PLP.part.metal>  (283) 


>  <PLP.part.nonpolar>  (283) 


>  <PLP.part.repulsive>  (283) 


>  <Version>  (283) 


$$$$
3283|Compound_2041|Compounds_3D_F|sdf|588|dock1|1
     RDKit          3D

 18 20  0  0  0  0  0  0  0  0999 V2000
  -12.0191  -18.4614   12.3552 O   0  0  0  0  0  0  0  0  0  0  0  0
  -10.7692  -18.2173   11.8965 C   0  0  0  0  0  0  0  0  0  0  0  0
   -9.9952  -19.2520   11.3357 C   0  0  0  0  0  0  0  0  0  0  0  0
  -10.2030  -20.5622   11.1162 N   0  0  0  0  0  0  0  0  0  0  0  0
   -9.1658  -21.0885   10.5655 N   0  0  0  0  0  0  0  0  0  0  0  0
   -8.1817  -20.1037   10.3886 N   0  0  0  0  0  0  0  0  0  0  0  0
   -8.7029  -18.9376   10.8754 C   0  0  0  0  0  0  0  0  0  0  0  0
   -8.2613  -17.6891   10.9842 N   0  0  0  0  0  0  0  0  0  0  0  0
   -9.0243  -16.7502   11.5186 C   0  0  0  0  0  0  0  0  0  0  0  0
  -10.2502  -16.9995   11.9594 N   0  0  0  0  0  0  0  0  0  0  0  0
   -8.5272  -15.4582   11.6150 N   0  0  0  0  0  0  0  0  0  0  0  0
   -7.2721  -15.2506   12.0616 C   0  0  0  0  0  0  0  0  0  0  0  0
   -6.5772  -16.1953   12.3814 O   0  0  0  0  0  0  0  0  0  0  0  0
   -6.7440  -13.8780   12.1642 C   0  0  0  0  0  0  0  0  0  0  0  0
   -5.5006  -13.5055   12.5995 C   0  0  0  0  0  0  0  0  0  0  0  0
   -5.5144  -12.0968   12.4983 C   0  0  0  0  0  0  0  0  0  0  0  0
   -6.6890  -11.7694   12.0412 N   0  0  0  0  0  0  0  0  0  0  0  0
   -7.3838  -12.7376   11.8435 O   0  0  0  0  0  0  0  0  0  0  0  0
  1  2  1  0
  2  3  2  0
  2 10  1  0
  3  4  1  0
  3  7  1  0
  4  5  2  0
  5  6  1  0
  6  7  1  0
  7  8  2  0
  8  9  1  0
  9 10  2  0
  9 11  1  0
 11 12  1  0
 12 13  2  0
 12 14  1  0
 14 15  2  0
 14 18  1  0
 15 16  1  0
 16 17  2  0
 17 18  1  0
M  END
>  <Gold.Gold.Protein.RotatedWaterAtoms>  (284) 


>  <Gold.Id.Protein>  (284) 


>  <Gold.PLP.Chemscore.CHOScore>  (284) 
1.0000

>  <Gold.PLP.Chemscore.Hbond>  (284) 
1.4500

>  <Gold.PLP.Chemscore.Internal.Correction>  (284) 
0.4002

>  <Gold.PLP.Chemscore.Metal>  (284) 
0.0000

>  <Gold.PLP.Fitness>  (284) 
42.9224

>  <Gold.PLP.PLP>  (284) 
-35.9225

>  <Gold.PLP.ligand.clash>  (284) 
0.0000

>  <Gold.PLP.ligand.torsion>  (284) 
0.3751

>  <Gold.PLP.part.buried>  (284) 
-9.7351

>  <Gold.PLP.part.hbond>  (284) 
-2.0000

>  <Gold.PLP.part.metal>  (284) 
0.0000

>  <Gold.PLP.part.nonpolar>  (284) 
-24.1657

>  <Gold.PLP.part.repulsive>  (284) 
0.4586

>  <Gold.Protein.RotatedAtoms>  (284) 


>  <Gold.Protein.RotatedTorsions>  (284) 


>  <Gold.Protein.RotatedWaterAtoms>  (284) 


>  <Gold.Version>  (284) 
5.3.0

>  <PLP.Chemscore.CHOScore>  (284) 


>  <PLP.Chemscore.Hbond>  (284) 


>  <PLP.Chemscore.Internal.Correction>  (284) 


>  <PLP.Chemscore.Metal>  (284) 


>  <PLP.Fitness>  (284) 


>  <PLP.PLP>  (284) 


>  <PLP.ligand.clash>  (284) 


>  <PLP.ligand.torsion>  (284) 


>  <PLP.part.buried>  (284) 


>  <PLP.part.hbond>  (284) 


>  <PLP.part.metal>  (284) 


>  <PLP.part.nonpolar>  (284) 


>  <PLP.part.repulsive>  (284) 


>  <Version>  (284) 


$$$$
3284|Compound_2041|Compounds_3D_F|sdf|588|dock2|1
     RDKit          3D

 18 20  0  0  0  0  0  0  0  0999 V2000
  -14.0460  -20.4031   14.1648 O   0  0  0  0  0  0  0  0  0  0  0  0
  -13.2849  -20.6687   13.0776 C   0  0  0  0  0  0  0  0  0  0  0  0
  -13.6076  -21.7375   12.2186 C   0  0  0  0  0  0  0  0  0  0  0  0
  -14.5842  -22.6616   12.2011 N   0  0  0  0  0  0  0  0  0  0  0  0
  -14.4407  -23.4378   11.1848 N   0  0  0  0  0  0  0  0  0  0  0  0
  -13.3109  -23.0424   10.4522 N   0  0  0  0  0  0  0  0  0  0  0  0
  -12.7793  -21.9647   11.1037 C   0  0  0  0  0  0  0  0  0  0  0  0
  -11.7322  -21.1722   10.9012 N   0  0  0  0  0  0  0  0  0  0  0  0
  -11.4680  -20.1806   11.7356 C   0  0  0  0  0  0  0  0  0  0  0  0
  -12.2245  -19.9256   12.7949 N   0  0  0  0  0  0  0  0  0  0  0  0
  -10.3650  -19.3752   11.4901 N   0  0  0  0  0  0  0  0  0  0  0  0
  -10.3858  -18.0759   11.8494 C   0  0  0  0  0  0  0  0  0  0  0  0
  -11.3717  -17.6101   12.3867 O   0  0  0  0  0  0  0  0  0  0  0  0
   -9.2140  -17.2201   11.5884 C   0  0  0  0  0  0  0  0  0  0  0  0
   -7.9969  -17.6176   11.1039 C   0  0  0  0  0  0  0  0  0  0  0  0
   -7.2491  -16.4209   11.0445 C   0  0  0  0  0  0  0  0  0  0  0  0
   -8.0325  -15.4724   11.4714 N   0  0  0  0  0  0  0  0  0  0  0  0
   -9.1256  -15.8894   11.7723 O   0  0  0  0  0  0  0  0  0  0  0  0
  1  2  1  0
  2  3  2  0
  2 10  1  0
  3  4  1  0
  3  7  1  0
  4  5  2  0
  5  6  1  0
  6  7  1  0
  7  8  2  0
  8  9  1  0
  9 10  2  0
  9 11  1  0
 11 12  1  0
 12 13  2  0
 12 14  1  0
 14 15  2  0
 14 18  1  0
 15 16  1  0
 16 17  2  0
 17 18  1  0
M  END
>  <Gold.Gold.Protein.RotatedWaterAtoms>  (285) 


>  <Gold.Id.Protein>  (285) 


>  <Gold.PLP.Chemscore.CHOScore>  (285) 
0.0000

>  <Gold.PLP.Chemscore.Hbond>  (285) 
4.9000

>  <Gold.PLP.Chemscore.Internal.Correction>  (285) 
0.4002

>  <Gold.PLP.Chemscore.Metal>  (285) 
0.0000

>  <Gold.PLP.Fitness>  (285) 
40.3896

>  <Gold.PLP.PLP>  (285) 
-25.7348

>  <Gold.PLP.ligand.clash>  (285) 
0.0000

>  <Gold.PLP.ligand.torsion>  (285) 
0.2227

>  <Gold.PLP.part.buried>  (285) 
-6.0604

>  <Gold.PLP.part.hbond>  (285) 
-6.4377

>  <Gold.PLP.part.metal>  (285) 
0.0000

>  <Gold.PLP.part.nonpolar>  (285) 
-13.4951

>  <Gold.PLP.part.repulsive>  (285) 
0.4386

>  <Gold.Protein.RotatedAtoms>  (285) 


>  <Gold.Protein.RotatedTorsions>  (285) 


>  <Gold.Protein.RotatedWaterAtoms>  (285) 


>  <Gold.Version>  (285) 
5.3.0

>  <PLP.Chemscore.CHOScore>  (285) 


>  <PLP.Chemscore.Hbond>  (285) 


>  <PLP.Chemscore.Internal.Correction>  (285) 


>  <PLP.Chemscore.Metal>  (285) 


>  <PLP.Fitness>  (285) 


>  <PLP.PLP>  (285) 


>  <PLP.ligand.clash>  (285) 


>  <PLP.ligand.torsion>  (285) 


>  <PLP.part.buried>  (285) 


>  <PLP.part.hbond>  (285) 


>  <PLP.part.metal>  (285) 


>  <PLP.part.nonpolar>  (285) 


>  <PLP.part.repulsive>  (285) 


>  <Version>  (285) 


$$$$
3285|Compound_2041|Compounds_3D_F|sdf|588|dock3|1
     RDKit          3D

 18 20  0  0  0  0  0  0  0  0999 V2000
  -13.9937  -20.4233   14.1507 O   0  0  0  0  0  0  0  0  0  0  0  0
  -13.1210  -20.7341   13.1639 C   0  0  0  0  0  0  0  0  0  0  0  0
  -13.2939  -21.9005   12.3932 C   0  0  0  0  0  0  0  0  0  0  0  0
  -14.2025  -22.8915   12.3870 N   0  0  0  0  0  0  0  0  0  0  0  0
  -13.9168  -23.7481   11.4701 N   0  0  0  0  0  0  0  0  0  0  0  0
  -12.7531  -23.3417   10.7990 N   0  0  0  0  0  0  0  0  0  0  0  0
  -12.3544  -22.1708   11.3808 C   0  0  0  0  0  0  0  0  0  0  0  0
  -11.3470  -21.3260   11.1881 N   0  0  0  0  0  0  0  0  0  0  0  0
  -11.2252  -20.2428   11.9373 C   0  0  0  0  0  0  0  0  0  0  0  0
  -12.0900  -19.9450   12.8979 N   0  0  0  0  0  0  0  0  0  0  0  0
  -10.1592  -19.3852   11.7055 N   0  0  0  0  0  0  0  0  0  0  0  0
  -10.3165  -18.0558   11.8659 C   0  0  0  0  0  0  0  0  0  0  0  0
  -11.3927  -17.6090   12.2118 O   0  0  0  0  0  0  0  0  0  0  0  0
   -9.1840  -17.1446   11.6194 C   0  0  0  0  0  0  0  0  0  0  0  0
   -7.9020  -17.4958   11.2919 C   0  0  0  0  0  0  0  0  0  0  0  0
   -7.2326  -16.2581   11.1700 C   0  0  0  0  0  0  0  0  0  0  0  0
   -8.1148  -15.3333   11.4193 N   0  0  0  0  0  0  0  0  0  0  0  0
   -9.2020  -15.7992   11.6645 O   0  0  0  0  0  0  0  0  0  0  0  0
  1  2  1  0
  2  3  2  0
  2 10  1  0
  3  4  1  0
  3  7  1  0
  4  5  2  0
  5  6  1  0
  6  7  1  0
  7  8  2  0
  8  9  1  0
  9 10  2  0
  9 11  1  0
 11 12  1  0
 12 13  2  0
 12 14  1  0
 14 15  2  0
 14 18  1  0
 15 16  1  0
 16 17  2  0
 17 18  1  0
M  END
>  <Gold.Gold.Protein.RotatedWaterAtoms>  (286) 


>  <Gold.Id.Protein>  (286) 


>  <Gold.PLP.Chemscore.CHOScore>  (286) 
0.0000

>  <Gold.PLP.Chemscore.Hbond>  (286) 
4.8175

>  <Gold.PLP.Chemscore.Internal.Correction>  (286) 
0.4002

>  <Gold.PLP.Chemscore.Metal>  (286) 
0.0000

>  <Gold.PLP.Fitness>  (286) 
40.6085

>  <Gold.PLP.PLP>  (286) 
-26.2551

>  <Gold.PLP.ligand.clash>  (286) 
0.0000

>  <Gold.PLP.ligand.torsion>  (286) 
0.2496

>  <Gold.PLP.part.buried>  (286) 
-6.3943

>  <Gold.PLP.part.hbond>  (286) 
-7.4501

>  <Gold.PLP.part.metal>  (286) 
0.0000

>  <Gold.PLP.part.nonpolar>  (286) 
-13.5851

>  <Gold.PLP.part.repulsive>  (286) 
0.4062

>  <Gold.Protein.RotatedAtoms>  (286) 


>  <Gold.Protein.RotatedTorsions>  (286) 


>  <Gold.Protein.RotatedWaterAtoms>  (286) 


>  <Gold.Version>  (286) 
5.3.0

>  <PLP.Chemscore.CHOScore>  (286) 


>  <PLP.Chemscore.Hbond>  (286) 


>  <PLP.Chemscore.Internal.Correction>  (286) 


>  <PLP.Chemscore.Metal>  (286) 


>  <PLP.Fitness>  (286) 


>  <PLP.PLP>  (286) 


>  <PLP.ligand.clash>  (286) 


>  <PLP.ligand.torsion>  (286) 


>  <PLP.part.buried>  (286) 


>  <PLP.part.hbond>  (286) 


>  <PLP.part.metal>  (286) 


>  <PLP.part.nonpolar>  (286) 


>  <PLP.part.repulsive>  (286) 


>  <Version>  (286) 


$$$$
3286|Compound_2041|Compounds_3D_F|sdf|588|dock4|1
     RDKit          3D

 18 20  0  0  0  0  0  0  0  0999 V2000
  -13.7954  -20.5491   14.1993 O   0  0  0  0  0  0  0  0  0  0  0  0
  -13.0346  -20.8440   13.1194 C   0  0  0  0  0  0  0  0  0  0  0  0
  -13.3768  -21.9148   12.2705 C   0  0  0  0  0  0  0  0  0  0  0  0
  -14.3740  -22.8167   12.2577 N   0  0  0  0  0  0  0  0  0  0  0  0
  -14.2426  -23.6073   11.2509 N   0  0  0  0  0  0  0  0  0  0  0  0
  -13.1001  -23.2457   10.5203 N   0  0  0  0  0  0  0  0  0  0  0  0
  -12.5478  -22.1731   11.1629 C   0  0  0  0  0  0  0  0  0  0  0  0
  -11.4819  -21.4068   10.9576 N   0  0  0  0  0  0  0  0  0  0  0  0
  -11.1999  -20.4121   11.7825 C   0  0  0  0  0  0  0  0  0  0  0  0
  -11.9561  -20.1283   12.8346 N   0  0  0  0  0  0  0  0  0  0  0  0
  -10.0776  -19.6347   11.5344 N   0  0  0  0  0  0  0  0  0  0  0  0
  -10.1111  -18.3078   11.7709 C   0  0  0  0  0  0  0  0  0  0  0  0
  -11.1253  -17.7928   12.1997 O   0  0  0  0  0  0  0  0  0  0  0  0
   -8.9188  -17.4817   11.5071 C   0  0  0  0  0  0  0  0  0  0  0  0
   -8.7400  -16.1658   11.8395 C   0  0  0  0  0  0  0  0  0  0  0  0
   -7.4429  -15.8701   11.3652 C   0  0  0  0  0  0  0  0  0  0  0  0
   -6.9874  -16.9637   10.8247 N   0  0  0  0  0  0  0  0  0  0  0  0
   -7.7834  -17.8696   10.8965 O   0  0  0  0  0  0  0  0  0  0  0  0
  1  2  1  0
  2  3  2  0
  2 10  1  0
  3  4  1  0
  3  7  1  0
  4  5  2  0
  5  6  1  0
  6  7  1  0
  7  8  2  0
  8  9  1  0
  9 10  2  0
  9 11  1  0
 11 12  1  0
 12 13  2  0
 12 14  1  0
 14 15  2  0
 14 18  1  0
 15 16  1  0
 16 17  2  0
 17 18  1  0
M  END
>  <Gold.Gold.Protein.RotatedWaterAtoms>  (287) 


>  <Gold.Id.Protein>  (287) 


>  <Gold.PLP.Chemscore.CHOScore>  (287) 
0.0000

>  <Gold.PLP.Chemscore.Hbond>  (287) 
5.0000

>  <Gold.PLP.Chemscore.Internal.Correction>  (287) 
0.4002

>  <Gold.PLP.Chemscore.Metal>  (287) 
0.0000

>  <Gold.PLP.Fitness>  (287) 
39.5688

>  <Gold.PLP.PLP>  (287) 
-24.7772

>  <Gold.PLP.ligand.clash>  (287) 
0.0000

>  <Gold.PLP.ligand.torsion>  (287) 
0.3043

>  <Gold.PLP.part.buried>  (287) 
-6.6508

>  <Gold.PLP.part.hbond>  (287) 
-5.7866

>  <Gold.PLP.part.metal>  (287) 
0.0000

>  <Gold.PLP.part.nonpolar>  (287) 
-13.4177

>  <Gold.PLP.part.repulsive>  (287) 
0.2249

>  <Gold.Protein.RotatedAtoms>  (287) 


>  <Gold.Protein.RotatedTorsions>  (287) 


>  <Gold.Protein.RotatedWaterAtoms>  (287) 


>  <Gold.Version>  (287) 
5.3.0

>  <PLP.Chemscore.CHOScore>  (287) 


>  <PLP.Chemscore.Hbond>  (287) 


>  <PLP.Chemscore.Internal.Correction>  (287) 


>  <PLP.Chemscore.Metal>  (287) 


>  <PLP.Fitness>  (287) 


>  <PLP.PLP>  (287) 


>  <PLP.ligand.clash>  (287) 


>  <PLP.ligand.torsion>  (287) 


>  <PLP.part.buried>  (287) 


>  <PLP.part.hbond>  (287) 


>  <PLP.part.metal>  (287) 


>  <PLP.part.nonpolar>  (287) 


>  <PLP.part.repulsive>  (287) 


>  <Version>  (287) 


$$$$
3287|Compound_2041|Compounds_3D_F|sdf|588|dock5|1
     RDKit          3D

 18 20  0  0  0  0  0  0  0  0999 V2000
  -13.8916  -20.5625   14.2560 O   0  0  0  0  0  0  0  0  0  0  0  0
  -13.0671  -20.8381   13.2186 C   0  0  0  0  0  0  0  0  0  0  0  0
  -13.2823  -21.9728   12.4120 C   0  0  0  0  0  0  0  0  0  0  0  0
  -14.1961  -22.9591   12.4094 N   0  0  0  0  0  0  0  0  0  0  0  0
  -13.9580  -23.7803   11.4476 N   0  0  0  0  0  0  0  0  0  0  0  0
  -12.8240  -23.3528   10.7397 N   0  0  0  0  0  0  0  0  0  0  0  0
  -12.3920  -22.2072   11.3475 C   0  0  0  0  0  0  0  0  0  0  0  0
  -11.3896  -21.3597   11.1413 N   0  0  0  0  0  0  0  0  0  0  0  0
  -11.2269  -20.3072   11.9256 C   0  0  0  0  0  0  0  0  0  0  0  0
  -12.0448  -20.0435   12.9360 N   0  0  0  0  0  0  0  0  0  0  0  0
  -10.1677  -19.4455   11.6782 N   0  0  0  0  0  0  0  0  0  0  0  0
  -10.3217  -18.1186   11.8602 C   0  0  0  0  0  0  0  0  0  0  0  0
  -11.3891  -17.6773   12.2392 O   0  0  0  0  0  0  0  0  0  0  0  0
   -9.1964  -17.2031   11.5971 C   0  0  0  0  0  0  0  0  0  0  0  0
   -7.9173  -17.5495   11.2536 C   0  0  0  0  0  0  0  0  0  0  0  0
   -7.2548  -16.3093   11.1206 C   0  0  0  0  0  0  0  0  0  0  0  0
   -8.1375  -15.3877   11.3796 N   0  0  0  0  0  0  0  0  0  0  0  0
   -9.2195  -15.8576   11.6399 O   0  0  0  0  0  0  0  0  0  0  0  0
  1  2  1  0
  2  3  2  0
  2 10  1  0
  3  4  1  0
  3  7  1  0
  4  5  2  0
  5  6  1  0
  6  7  1  0
  7  8  2  0
  8  9  1  0
  9 10  2  0
  9 11  1  0
 11 12  1  0
 12 13  2  0
 12 14  1  0
 14 15  2  0
 14 18  1  0
 15 16  1  0
 16 17  2  0
 17 18  1  0
M  END
>  <Gold.Gold.Protein.RotatedWaterAtoms>  (288) 


>  <Gold.Id.Protein>  (288) 


>  <Gold.PLP.Chemscore.CHOScore>  (288) 
0.0000

>  <Gold.PLP.Chemscore.Hbond>  (288) 
4.9920

>  <Gold.PLP.Chemscore.Internal.Correction>  (288) 
0.4002

>  <Gold.PLP.Chemscore.Metal>  (288) 
0.0000

>  <Gold.PLP.Fitness>  (288) 
40.7650

>  <Gold.PLP.PLP>  (288) 
-25.9438

>  <Gold.PLP.ligand.clash>  (288) 
0.0000

>  <Gold.PLP.ligand.torsion>  (288) 
0.2775

>  <Gold.PLP.part.buried>  (288) 
-6.4621

>  <Gold.PLP.part.hbond>  (288) 
-7.5758

>  <Gold.PLP.part.metal>  (288) 
0.0000

>  <Gold.PLP.part.nonpolar>  (288) 
-13.3192

>  <Gold.PLP.part.repulsive>  (288) 
0.3957

>  <Gold.Protein.RotatedAtoms>  (288) 


>  <Gold.Protein.RotatedTorsions>  (288) 


>  <Gold.Protein.RotatedWaterAtoms>  (288) 


>  <Gold.Version>  (288) 
5.3.0

>  <PLP.Chemscore.CHOScore>  (288) 


>  <PLP.Chemscore.Hbond>  (288) 


>  <PLP.Chemscore.Internal.Correction>  (288) 


>  <PLP.Chemscore.Metal>  (288) 


>  <PLP.Fitness>  (288) 


>  <PLP.PLP>  (288) 


>  <PLP.ligand.clash>  (288) 


>  <PLP.ligand.torsion>  (288) 


>  <PLP.part.buried>  (288) 


>  <PLP.part.hbond>  (288) 


>  <PLP.part.metal>  (288) 


>  <PLP.part.nonpolar>  (288) 


>  <PLP.part.repulsive>  (288) 


>  <Version>  (288) 


$$$$
3288|Compound_2041|Compounds_3D_F|sdf|588|dock6|1
     RDKit          3D

 18 20  0  0  0  0  0  0  0  0999 V2000
  -13.9488  -20.5526   14.3460 O   0  0  0  0  0  0  0  0  0  0  0  0
  -13.2384  -20.7602   13.2128 C   0  0  0  0  0  0  0  0  0  0  0  0
  -13.6076  -21.7761   12.3095 C   0  0  0  0  0  0  0  0  0  0  0  0
  -14.5918  -22.6917   12.2826 N   0  0  0  0  0  0  0  0  0  0  0  0
  -14.4996  -23.4093   11.2184 N   0  0  0  0  0  0  0  0  0  0  0  0
  -13.3996  -22.9793   10.4602 N   0  0  0  0  0  0  0  0  0  0  0  0
  -12.8309  -21.9440   11.1479 C   0  0  0  0  0  0  0  0  0  0  0  0
  -11.7869  -21.1475   10.9447 N   0  0  0  0  0  0  0  0  0  0  0  0
  -11.4780  -20.2069   11.8217 C   0  0  0  0  0  0  0  0  0  0  0  0
  -12.1851  -20.0085   12.9262 N   0  0  0  0  0  0  0  0  0  0  0  0
  -10.3800  -19.3954   11.5740 N   0  0  0  0  0  0  0  0  0  0  0  0
  -10.4325  -18.0812   11.8705 C   0  0  0  0  0  0  0  0  0  0  0  0
  -11.4426  -17.6074   12.3531 O   0  0  0  0  0  0  0  0  0  0  0  0
   -9.2660  -17.2190   11.6070 C   0  0  0  0  0  0  0  0  0  0  0  0
   -7.9945  -17.6256   11.3038 C   0  0  0  0  0  0  0  0  0  0  0  0
   -7.2802  -16.4169   11.1499 C   0  0  0  0  0  0  0  0  0  0  0  0
   -8.1310  -15.4539   11.3611 N   0  0  0  0  0  0  0  0  0  0  0  0
   -9.2363  -15.8730   11.6098 O   0  0  0  0  0  0  0  0  0  0  0  0
  1  2  1  0
  2  3  2  0
  2 10  1  0
  3  4  1  0
  3  7  1  0
  4  5  2  0
  5  6  1  0
  6  7  1  0
  7  8  2  0
  8  9  1  0
  9 10  2  0
  9 11  1  0
 11 12  1  0
 12 13  2  0
 12 14  1  0
 14 15  2  0
 14 18  1  0
 15 16  1  0
 16 17  2  0
 17 18  1  0
M  END
>  <Gold.Gold.Protein.RotatedWaterAtoms>  (289) 


>  <Gold.Id.Protein>  (289) 


>  <Gold.PLP.Chemscore.CHOScore>  (289) 
0.0000

>  <Gold.PLP.Chemscore.Hbond>  (289) 
5.0000

>  <Gold.PLP.Chemscore.Internal.Correction>  (289) 
0.4002

>  <Gold.PLP.Chemscore.Metal>  (289) 
0.0000

>  <Gold.PLP.Fitness>  (289) 
41.4150

>  <Gold.PLP.PLP>  (289) 
-26.7623

>  <Gold.PLP.ligand.clash>  (289) 
0.0000

>  <Gold.PLP.ligand.torsion>  (289) 
0.3737

>  <Gold.PLP.part.buried>  (289) 
-6.3214

>  <Gold.PLP.part.hbond>  (289) 
-7.0177

>  <Gold.PLP.part.metal>  (289) 
0.0000

>  <Gold.PLP.part.nonpolar>  (289) 
-14.0445

>  <Gold.PLP.part.repulsive>  (289) 
0.4489

>  <Gold.Protein.RotatedAtoms>  (289) 


>  <Gold.Protein.RotatedTorsions>  (289) 


>  <Gold.Protein.RotatedWaterAtoms>  (289) 


>  <Gold.Version>  (289) 
5.3.0

>  <PLP.Chemscore.CHOScore>  (289) 


>  <PLP.Chemscore.Hbond>  (289) 


>  <PLP.Chemscore.Internal.Correction>  (289) 


>  <PLP.Chemscore.Metal>  (289) 


>  <PLP.Fitness>  (289) 


>  <PLP.PLP>  (289) 


>  <PLP.ligand.clash>  (289) 


>  <PLP.ligand.torsion>  (289) 


>  <PLP.part.buried>  (289) 


>  <PLP.part.hbond>  (289) 


>  <PLP.part.metal>  (289) 


>  <PLP.part.nonpolar>  (289) 


>  <PLP.part.repulsive>  (289) 


>  <Version>  (289) 


$$$$
3289|Compound_2041|Compounds_3D_F|sdf|588|dock7|1
     RDKit          3D

 18 20  0  0  0  0  0  0  0  0999 V2000
  -13.8113  -20.5366   14.1840 O   0  0  0  0  0  0  0  0  0  0  0  0
  -13.0662  -20.8152   13.0890 C   0  0  0  0  0  0  0  0  0  0  0  0
  -13.4243  -21.8692   12.2257 C   0  0  0  0  0  0  0  0  0  0  0  0
  -14.4255  -22.7665   12.2100 N   0  0  0  0  0  0  0  0  0  0  0  0
  -14.3109  -23.5394   11.1875 N   0  0  0  0  0  0  0  0  0  0  0  0
  -13.1766  -23.1695   10.4484 N   0  0  0  0  0  0  0  0  0  0  0  0
  -12.6112  -22.1109   11.1027 C   0  0  0  0  0  0  0  0  0  0  0  0
  -11.5447  -21.3454   10.8970 N   0  0  0  0  0  0  0  0  0  0  0  0
  -11.2475  -20.3669   11.7357 C   0  0  0  0  0  0  0  0  0  0  0  0
  -11.9885  -20.0990   12.8027 N   0  0  0  0  0  0  0  0  0  0  0  0
  -10.1252  -19.5898   11.4866 N   0  0  0  0  0  0  0  0  0  0  0  0
  -10.1503  -18.2670   11.7460 C   0  0  0  0  0  0  0  0  0  0  0  0
  -11.1568  -17.7553   12.1963 O   0  0  0  0  0  0  0  0  0  0  0  0
   -8.9580  -17.4412   11.4812 C   0  0  0  0  0  0  0  0  0  0  0  0
   -8.7748  -16.1280   11.8219 C   0  0  0  0  0  0  0  0  0  0  0  0
   -7.4799  -15.8313   11.3422 C   0  0  0  0  0  0  0  0  0  0  0  0
   -7.0296  -16.9219   10.7913 N   0  0  0  0  0  0  0  0  0  0  0  0
   -7.8268  -17.8269   10.8613 O   0  0  0  0  0  0  0  0  0  0  0  0
  1  2  1  0
  2  3  2  0
  2 10  1  0
  3  4  1  0
  3  7  1  0
  4  5  2  0
  5  6  1  0
  6  7  1  0
  7  8  2  0
  8  9  1  0
  9 10  2  0
  9 11  1  0
 11 12  1  0
 12 13  2  0
 12 14  1  0
 14 15  2  0
 14 18  1  0
 15 16  1  0
 16 17  2  0
 17 18  1  0
M  END
>  <Gold.Gold.Protein.RotatedWaterAtoms>  (290) 


>  <Gold.Id.Protein>  (290) 


>  <Gold.PLP.Chemscore.CHOScore>  (290) 
0.0000

>  <Gold.PLP.Chemscore.Hbond>  (290) 
5.0000

>  <Gold.PLP.Chemscore.Internal.Correction>  (290) 
0.4002

>  <Gold.PLP.Chemscore.Metal>  (290) 
0.0000

>  <Gold.PLP.Fitness>  (290) 
39.5859

>  <Gold.PLP.PLP>  (290) 
-24.7870

>  <Gold.PLP.ligand.clash>  (290) 
0.0000

>  <Gold.PLP.ligand.torsion>  (290) 
0.3006

>  <Gold.PLP.part.buried>  (290) 
-6.5125

>  <Gold.PLP.part.hbond>  (290) 
-5.5109

>  <Gold.PLP.part.metal>  (290) 
0.0000

>  <Gold.PLP.part.nonpolar>  (290) 
-13.3906

>  <Gold.PLP.part.repulsive>  (290) 
0.2252

>  <Gold.Protein.RotatedAtoms>  (290) 


>  <Gold.Protein.RotatedTorsions>  (290) 


>  <Gold.Protein.RotatedWaterAtoms>  (290) 


>  <Gold.Version>  (290) 
5.3.0

>  <PLP.Chemscore.CHOScore>  (290) 


>  <PLP.Chemscore.Hbond>  (290) 


>  <PLP.Chemscore.Internal.Correction>  (290) 


>  <PLP.Chemscore.Metal>  (290) 


>  <PLP.Fitness>  (290) 


>  <PLP.PLP>  (290) 


>  <PLP.ligand.clash>  (290) 


>  <PLP.ligand.torsion>  (290) 


>  <PLP.part.buried>  (290) 


>  <PLP.part.hbond>  (290) 


>  <PLP.part.metal>  (290) 


>  <PLP.part.nonpolar>  (290) 


>  <PLP.part.repulsive>  (290) 


>  <Version>  (290) 


$$$$
3290|Compound_2041|Compounds_3D_F|sdf|588|dock8|1
     RDKit          3D

 18 20  0  0  0  0  0  0  0  0999 V2000
  -11.7864  -18.5667   12.4346 O   0  0  0  0  0  0  0  0  0  0  0  0
  -10.5875  -18.2371   11.8997 C   0  0  0  0  0  0  0  0  0  0  0  0
   -9.8174  -19.1983   11.2161 C   0  0  0  0  0  0  0  0  0  0  0  0
   -9.9871  -20.5007   10.9284 N   0  0  0  0  0  0  0  0  0  0  0  0
   -8.9752  -20.9434   10.2679 N   0  0  0  0  0  0  0  0  0  0  0  0
   -8.0498  -19.9049   10.0815 N   0  0  0  0  0  0  0  0  0  0  0  0
   -8.5793  -18.7964   10.6809 C   0  0  0  0  0  0  0  0  0  0  0  0
   -8.1828  -17.5378   10.8369 N   0  0  0  0  0  0  0  0  0  0  0  0
   -8.9401  -16.6700   11.4871 C   0  0  0  0  0  0  0  0  0  0  0  0
  -10.1163  -17.0026   12.0022 N   0  0  0  0  0  0  0  0  0  0  0  0
   -8.4910  -15.3648   11.6294 N   0  0  0  0  0  0  0  0  0  0  0  0
   -7.2025  -15.1260   11.9462 C   0  0  0  0  0  0  0  0  0  0  0  0
   -6.4350  -16.0545   12.1089 O   0  0  0  0  0  0  0  0  0  0  0  0
   -6.7255  -13.7392   12.0975 C   0  0  0  0  0  0  0  0  0  0  0  0
   -5.5006  -13.3364   12.5573 C   0  0  0  0  0  0  0  0  0  0  0  0
   -5.5645  -11.9266   12.5003 C   0  0  0  0  0  0  0  0  0  0  0  0
   -6.7458  -11.6272   12.0414 N   0  0  0  0  0  0  0  0  0  0  0  0
   -7.4031  -12.6130   11.8061 O   0  0  0  0  0  0  0  0  0  0  0  0
  1  2  1  0
  2  3  2  0
  2 10  1  0
  3  4  1  0
  3  7  1  0
  4  5  2  0
  5  6  1  0
  6  7  1  0
  7  8  2  0
  8  9  1  0
  9 10  2  0
  9 11  1  0
 11 12  1  0
 12 13  2  0
 12 14  1  0
 14 15  2  0
 14 18  1  0
 15 16  1  0
 16 17  2  0
 17 18  1  0
M  END
>  <Gold.Gold.Protein.RotatedWaterAtoms>  (291) 


>  <Gold.Id.Protein>  (291) 


>  <Gold.PLP.Chemscore.CHOScore>  (291) 
1.0000

>  <Gold.PLP.Chemscore.Hbond>  (291) 
1.8000

>  <Gold.PLP.Chemscore.Internal.Correction>  (291) 
0.4002

>  <Gold.PLP.Chemscore.Metal>  (291) 
0.0000

>  <Gold.PLP.Fitness>  (291) 
43.2456

>  <Gold.PLP.PLP>  (291) 
-35.1944

>  <Gold.PLP.ligand.clash>  (291) 
0.0000

>  <Gold.PLP.ligand.torsion>  (291) 
0.3745

>  <Gold.PLP.part.buried>  (291) 
-9.7142

>  <Gold.PLP.part.hbond>  (291) 
-2.0000

>  <Gold.PLP.part.metal>  (291) 
0.0000

>  <Gold.PLP.part.nonpolar>  (291) 
-23.8978

>  <Gold.PLP.part.repulsive>  (291) 
0.4624

>  <Gold.Protein.RotatedAtoms>  (291) 


>  <Gold.Protein.RotatedTorsions>  (291) 


>  <Gold.Protein.RotatedWaterAtoms>  (291) 


>  <Gold.Version>  (291) 
5.3.0

>  <PLP.Chemscore.CHOScore>  (291) 


>  <PLP.Chemscore.Hbond>  (291) 


>  <PLP.Chemscore.Internal.Correction>  (291) 


>  <PLP.Chemscore.Metal>  (291) 


>  <PLP.Fitness>  (291) 


>  <PLP.PLP>  (291) 


>  <PLP.ligand.clash>  (291) 


>  <PLP.ligand.torsion>  (291) 


>  <PLP.part.buried>  (291) 


>  <PLP.part.hbond>  (291) 


>  <PLP.part.metal>  (291) 


>  <PLP.part.nonpolar>  (291) 


>  <PLP.part.repulsive>  (291) 


>  <Version>  (291) 


$$$$
3291|Compound_2041|Compounds_3D_F|sdf|588|dock9|1
     RDKit          3D

 18 20  0  0  0  0  0  0  0  0999 V2000
  -11.8515  -18.5569   12.4440 O   0  0  0  0  0  0  0  0  0  0  0  0
  -10.6566  -18.2361   11.8953 C   0  0  0  0  0  0  0  0  0  0  0  0
   -9.8870  -19.2104   11.2299 C   0  0  0  0  0  0  0  0  0  0  0  0
  -10.0541  -20.5196   10.9732 N   0  0  0  0  0  0  0  0  0  0  0  0
   -9.0443  -20.9744   10.3177 N   0  0  0  0  0  0  0  0  0  0  0  0
   -8.1231  -19.9377   10.1026 N   0  0  0  0  0  0  0  0  0  0  0  0
   -8.6530  -18.8173   10.6791 C   0  0  0  0  0  0  0  0  0  0  0  0
   -8.2597  -17.5542   10.8040 N   0  0  0  0  0  0  0  0  0  0  0  0
   -9.0162  -16.6739   11.4381 C   0  0  0  0  0  0  0  0  0  0  0  0
  -10.1887  -16.9982   11.9668 N   0  0  0  0  0  0  0  0  0  0  0  0
   -8.5705  -15.3644   11.5479 N   0  0  0  0  0  0  0  0  0  0  0  0
   -7.3218  -15.1122   11.9893 C   0  0  0  0  0  0  0  0  0  0  0  0
   -6.5875  -16.0322   12.2928 O   0  0  0  0  0  0  0  0  0  0  0  0
   -6.8484  -13.7209   12.1062 C   0  0  0  0  0  0  0  0  0  0  0  0
   -5.6456  -13.3007   12.6070 C   0  0  0  0  0  0  0  0  0  0  0  0
   -5.7025  -11.8944   12.4892 C   0  0  0  0  0  0  0  0  0  0  0  0
   -6.8597  -11.6129   11.9625 N   0  0  0  0  0  0  0  0  0  0  0  0
   -7.5081  -12.6069   11.7367 O   0  0  0  0  0  0  0  0  0  0  0  0
  1  2  1  0
  2  3  2  0
  2 10  1  0
  3  4  1  0
  3  7  1  0
  4  5  2  0
  5  6  1  0
  6  7  1  0
  7  8  2  0
  8  9  1  0
  9 10  2  0
  9 11  1  0
 11 12  1  0
 12 13  2  0
 12 14  1  0
 14 15  2  0
 14 18  1  0
 15 16  1  0
 16 17  2  0
 17 18  1  0
M  END
>  <Gold.Gold.Protein.RotatedWaterAtoms>  (292) 


>  <Gold.Id.Protein>  (292) 


>  <Gold.PLP.Chemscore.CHOScore>  (292) 
1.0000

>  <Gold.PLP.Chemscore.Hbond>  (292) 
1.7500

>  <Gold.PLP.Chemscore.Internal.Correction>  (292) 
0.4002

>  <Gold.PLP.Chemscore.Metal>  (292) 
0.0000

>  <Gold.PLP.Fitness>  (292) 
43.0361

>  <Gold.PLP.PLP>  (292) 
-35.2752

>  <Gold.PLP.ligand.clash>  (292) 
0.0000

>  <Gold.PLP.ligand.torsion>  (292) 
0.4446

>  <Gold.PLP.part.buried>  (292) 
-9.3866

>  <Gold.PLP.part.hbond>  (292) 
-2.0990

>  <Gold.PLP.part.metal>  (292) 
0.0000

>  <Gold.PLP.part.nonpolar>  (292) 
-23.8193

>  <Gold.PLP.part.repulsive>  (292) 
0.4448

>  <Gold.Protein.RotatedAtoms>  (292) 


>  <Gold.Protein.RotatedTorsions>  (292) 


>  <Gold.Protein.RotatedWaterAtoms>  (292) 


>  <Gold.Version>  (292) 
5.3.0

>  <PLP.Chemscore.CHOScore>  (292) 


>  <PLP.Chemscore.Hbond>  (292) 


>  <PLP.Chemscore.Internal.Correction>  (292) 


>  <PLP.Chemscore.Metal>  (292) 


>  <PLP.Fitness>  (292) 


>  <PLP.PLP>  (292) 


>  <PLP.ligand.clash>  (292) 


>  <PLP.ligand.torsion>  (292) 


>  <PLP.part.buried>  (292) 


>  <PLP.part.hbond>  (292) 


>  <PLP.part.metal>  (292) 


>  <PLP.part.nonpolar>  (292) 


>  <PLP.part.repulsive>  (292) 


>  <Version>  (292) 


$$$$
3292|Compound_2046|Compounds_3D_F|sdf|589|dock1|1
     RDKit          3D

 17 19  0  0  0  0  0  0  0  0999 V2000
   -7.1530  -15.4582   11.8429 N   0  0  0  0  0  0  0  0  0  0  0  0
   -7.6455  -14.2171   11.6575 C   0  0  0  0  0  0  0  0  0  0  0  0
   -8.7615  -14.0686   11.2004 O   0  0  0  0  0  0  0  0  0  0  0  0
   -6.8296  -13.0402   12.0099 C   0  0  0  0  0  0  0  0  0  0  0  0
   -7.2692  -11.7550   12.1786 C   0  0  0  0  0  0  0  0  0  0  0  0
   -6.0971  -11.0369   12.5031 C   0  0  0  0  0  0  0  0  0  0  0  0
   -5.1203  -11.8976   12.5002 N   0  0  0  0  0  0  0  0  0  0  0  0
   -5.5028  -13.0136   12.2361 O   0  0  0  0  0  0  0  0  0  0  0  0
   -7.9184  -16.5656   11.5068 C   0  0  0  0  0  0  0  0  0  0  0  0
   -7.4145  -17.5364   10.7510 N   0  0  0  0  0  0  0  0  0  0  0  0
   -8.1362  -18.5950   10.4266 C   0  0  0  0  0  0  0  0  0  0  0  0
   -9.3786  -18.7546   10.8240 N   0  0  0  0  0  0  0  0  0  0  0  0
   -9.9687  -17.8321   11.5867 C   0  0  0  0  0  0  0  0  0  0  0  0
   -9.2350  -16.6903   11.9607 C   0  0  0  0  0  0  0  0  0  0  0  0
  -10.0891  -15.9425   12.7250 N   0  0  0  0  0  0  0  0  0  0  0  0
  -11.2134  -16.5702   12.7993 N   0  0  0  0  0  0  0  0  0  0  0  0
  -11.1802  -17.6817   12.1496 N   0  0  0  0  0  0  0  0  0  0  0  0
  1  2  1  0
  1  9  1  0
  2  3  2  0
  2  4  1  0
  4  5  2  0
  4  8  1  0
  5  6  1  0
  6  7  2  0
  7  8  1  0
  9 10  2  0
  9 14  1  0
 10 11  1  0
 11 12  2  0
 12 13  1  0
 13 14  2  0
 13 17  1  0
 14 15  1  0
 15 16  1  0
 16 17  2  0
M  END
>  <Gold.Gold.Protein.RotatedWaterAtoms>  (293) 


>  <Gold.Id.Protein>  (293) 


>  <Gold.PLP.Chemscore.CHOScore>  (293) 
0.7524

>  <Gold.PLP.Chemscore.Hbond>  (293) 
1.1103

>  <Gold.PLP.Chemscore.Internal.Correction>  (293) 
0.2950

>  <Gold.PLP.Chemscore.Metal>  (293) 
0.0000

>  <Gold.PLP.Fitness>  (293) 
40.6587

>  <Gold.PLP.PLP>  (293) 
-35.8968

>  <Gold.PLP.ligand.clash>  (293) 
0.0000

>  <Gold.PLP.ligand.torsion>  (293) 
0.5607

>  <Gold.PLP.part.buried>  (293) 
-8.2916

>  <Gold.PLP.part.hbond>  (293) 
-6.7748

>  <Gold.PLP.part.metal>  (293) 
0.0000

>  <Gold.PLP.part.nonpolar>  (293) 
-22.8539

>  <Gold.PLP.part.repulsive>  (293) 
1.3282

>  <Gold.Protein.RotatedAtoms>  (293) 


>  <Gold.Protein.RotatedTorsions>  (293) 


>  <Gold.Protein.RotatedWaterAtoms>  (293) 


>  <Gold.Version>  (293) 
5.3.0

>  <PLP.Chemscore.CHOScore>  (293) 


>  <PLP.Chemscore.Hbond>  (293) 


>  <PLP.Chemscore.Internal.Correction>  (293) 


>  <PLP.Chemscore.Metal>  (293) 


>  <PLP.Fitness>  (293) 


>  <PLP.PLP>  (293) 


>  <PLP.ligand.clash>  (293) 


>  <PLP.ligand.torsion>  (293) 


>  <PLP.part.buried>  (293) 


>  <PLP.part.hbond>  (293) 


>  <PLP.part.metal>  (293) 


>  <PLP.part.nonpolar>  (293) 


>  <PLP.part.repulsive>  (293) 


>  <Version>  (293) 


$$$$
3293|Compound_2046|Compounds_3D_F|sdf|589|dock2|1
     RDKit          3D

 17 19  0  0  0  0  0  0  0  0999 V2000
   -7.4083  -15.4864   11.6865 N   0  0  0  0  0  0  0  0  0  0  0  0
   -7.9285  -14.2528   11.5294 C   0  0  0  0  0  0  0  0  0  0  0  0
   -9.0607  -14.1202   11.1084 O   0  0  0  0  0  0  0  0  0  0  0  0
   -7.1234  -13.0646   11.8687 C   0  0  0  0  0  0  0  0  0  0  0  0
   -5.8420  -13.0490   12.3495 C   0  0  0  0  0  0  0  0  0  0  0  0
   -5.5547  -11.6744   12.5005 C   0  0  0  0  0  0  0  0  0  0  0  0
   -6.6194  -11.0277   12.1226 N   0  0  0  0  0  0  0  0  0  0  0  0
   -7.4982  -11.7760   11.7628 O   0  0  0  0  0  0  0  0  0  0  0  0
   -8.1636  -16.6043   11.3628 C   0  0  0  0  0  0  0  0  0  0  0  0
   -7.6730  -17.5490   10.5662 N   0  0  0  0  0  0  0  0  0  0  0  0
   -8.3853  -18.6173   10.2530 C   0  0  0  0  0  0  0  0  0  0  0  0
   -9.6049  -18.8125   10.7018 N   0  0  0  0  0  0  0  0  0  0  0  0
  -10.1803  -17.9182   11.5080 C   0  0  0  0  0  0  0  0  0  0  0  0
   -9.4557  -16.7673   11.8718 C   0  0  0  0  0  0  0  0  0  0  0  0
  -10.2908  -16.0536   12.6880 N   0  0  0  0  0  0  0  0  0  0  0  0
  -11.3968  -16.7079   12.7994 N   0  0  0  0  0  0  0  0  0  0  0  0
  -11.3685  -17.8059   12.1269 N   0  0  0  0  0  0  0  0  0  0  0  0
  1  2  1  0
  1  9  1  0
  2  3  2  0
  2  4  1  0
  4  5  2  0
  4  8  1  0
  5  6  1  0
  6  7  2  0
  7  8  1  0
  9 10  2  0
  9 14  1  0
 10 11  1  0
 11 12  2  0
 12 13  1  0
 13 14  2  0
 13 17  1  0
 14 15  1  0
 15 16  1  0
 16 17  2  0
M  END
>  <Gold.Gold.Protein.RotatedWaterAtoms>  (294) 


>  <Gold.Id.Protein>  (294) 


>  <Gold.PLP.Chemscore.CHOScore>  (294) 
1.0000

>  <Gold.PLP.Chemscore.Hbond>  (294) 
1.1423

>  <Gold.PLP.Chemscore.Internal.Correction>  (294) 
0.2950

>  <Gold.PLP.Chemscore.Metal>  (294) 
0.0000

>  <Gold.PLP.Fitness>  (294) 
42.5516

>  <Gold.PLP.PLP>  (294) 
-36.7452

>  <Gold.PLP.ligand.clash>  (294) 
0.0000

>  <Gold.PLP.ligand.torsion>  (294) 
0.4578

>  <Gold.PLP.part.buried>  (294) 
-6.0757

>  <Gold.PLP.part.hbond>  (294) 
-7.4422

>  <Gold.PLP.part.metal>  (294) 
0.0000

>  <Gold.PLP.part.nonpolar>  (294) 
-23.9031

>  <Gold.PLP.part.repulsive>  (294) 
1.0068

>  <Gold.Protein.RotatedAtoms>  (294) 


>  <Gold.Protein.RotatedTorsions>  (294) 


>  <Gold.Protein.RotatedWaterAtoms>  (294) 


>  <Gold.Version>  (294) 
5.3.0

>  <PLP.Chemscore.CHOScore>  (294) 


>  <PLP.Chemscore.Hbond>  (294) 


>  <PLP.Chemscore.Internal.Correction>  (294) 


>  <PLP.Chemscore.Metal>  (294) 


>  <PLP.Fitness>  (294) 


>  <PLP.PLP>  (294) 


>  <PLP.ligand.clash>  (294) 


>  <PLP.ligand.torsion>  (294) 


>  <PLP.part.buried>  (294) 


>  <PLP.part.hbond>  (294) 


>  <PLP.part.metal>  (294) 


>  <PLP.part.nonpolar>  (294) 


>  <PLP.part.repulsive>  (294) 


>  <Version>  (294) 


$$$$
3294|Compound_2046|Compounds_3D_F|sdf|589|dock3|1
     RDKit          3D

 17 19  0  0  0  0  0  0  0  0999 V2000
   -7.9741  -15.7913   11.1709 N   0  0  0  0  0  0  0  0  0  0  0  0
   -6.9743  -15.4394   12.0037 C   0  0  0  0  0  0  0  0  0  0  0  0
   -6.4383  -16.2800   12.6984 O   0  0  0  0  0  0  0  0  0  0  0  0
   -6.5313  -14.0343   12.0712 C   0  0  0  0  0  0  0  0  0  0  0  0
   -5.4843  -13.5358   12.7983 C   0  0  0  0  0  0  0  0  0  0  0  0
   -5.4993  -12.1536   12.5084 C   0  0  0  0  0  0  0  0  0  0  0  0
   -6.4898  -11.9563   11.6868 N   0  0  0  0  0  0  0  0  0  0  0  0
   -7.0713  -12.9836   11.4257 O   0  0  0  0  0  0  0  0  0  0  0  0
   -8.3945  -17.1121   11.1107 C   0  0  0  0  0  0  0  0  0  0  0  0
   -7.6138  -18.0509   10.5846 N   0  0  0  0  0  0  0  0  0  0  0  0
   -8.0061  -19.3115   10.5237 C   0  0  0  0  0  0  0  0  0  0  0  0
   -9.1742  -19.7128   10.9726 N   0  0  0  0  0  0  0  0  0  0  0  0
  -10.0250  -18.8413   11.5181 C   0  0  0  0  0  0  0  0  0  0  0  0
   -9.6460  -17.4884   11.6081 C   0  0  0  0  0  0  0  0  0  0  0  0
  -10.7031  -16.8523   12.2003 N   0  0  0  0  0  0  0  0  0  0  0  0
  -11.6167  -17.7312   12.4383 N   0  0  0  0  0  0  0  0  0  0  0  0
  -11.2548  -18.9070   12.0571 N   0  0  0  0  0  0  0  0  0  0  0  0
  1  2  1  0
  1  9  1  0
  2  3  2  0
  2  4  1  0
  4  5  2  0
  4  8  1  0
  5  6  1  0
  6  7  2  0
  7  8  1  0
  9 10  2  0
  9 14  1  0
 10 11  1  0
 11 12  2  0
 12 13  1  0
 13 14  2  0
 13 17  1  0
 14 15  1  0
 15 16  1  0
 16 17  2  0
M  END
>  <Gold.Gold.Protein.RotatedWaterAtoms>  (295) 


>  <Gold.Id.Protein>  (295) 


>  <Gold.PLP.Chemscore.CHOScore>  (295) 
1.0000

>  <Gold.PLP.Chemscore.Hbond>  (295) 
0.9500

>  <Gold.PLP.Chemscore.Internal.Correction>  (295) 
0.2950

>  <Gold.PLP.Chemscore.Metal>  (295) 
0.0000

>  <Gold.PLP.Fitness>  (295) 
39.8796

>  <Gold.PLP.PLP>  (295) 
-35.0674

>  <Gold.PLP.ligand.clash>  (295) 
0.0000

>  <Gold.PLP.ligand.torsion>  (295) 
0.6664

>  <Gold.PLP.part.buried>  (295) 
-6.3941

>  <Gold.PLP.part.hbond>  (295) 
-3.9026

>  <Gold.PLP.part.metal>  (295) 
0.0000

>  <Gold.PLP.part.nonpolar>  (295) 
-23.7285

>  <Gold.PLP.part.repulsive>  (295) 
0.6818

>  <Gold.Protein.RotatedAtoms>  (295) 


>  <Gold.Protein.RotatedTorsions>  (295) 


>  <Gold.Protein.RotatedWaterAtoms>  (295) 


>  <Gold.Version>  (295) 
5.3.0

>  <PLP.Chemscore.CHOScore>  (295) 


>  <PLP.Chemscore.Hbond>  (295) 


>  <PLP.Chemscore.Internal.Correction>  (295) 


>  <PLP.Chemscore.Metal>  (295) 


>  <PLP.Fitness>  (295) 


>  <PLP.PLP>  (295) 


>  <PLP.ligand.clash>  (295) 


>  <PLP.ligand.torsion>  (295) 


>  <PLP.part.buried>  (295) 


>  <PLP.part.hbond>  (295) 


>  <PLP.part.metal>  (295) 


>  <PLP.part.nonpolar>  (295) 


>  <PLP.part.repulsive>  (295) 


>  <Version>  (295) 


$$$$
3295|Compound_2046|Compounds_3D_F|sdf|589|dock4|1
     RDKit          3D

 17 19  0  0  0  0  0  0  0  0999 V2000
   -8.2239  -14.7988   11.3807 N   0  0  0  0  0  0  0  0  0  0  0  0
   -7.0947  -14.1370   11.7033 C   0  0  0  0  0  0  0  0  0  0  0  0
   -6.0610  -14.7504   11.8811 O   0  0  0  0  0  0  0  0  0  0  0  0
   -7.1145  -12.6687   11.8403 C   0  0  0  0  0  0  0  0  0  0  0  0
   -8.1792  -11.8364   11.6231 C   0  0  0  0  0  0  0  0  0  0  0  0
   -7.6626  -10.5498   11.8926 C   0  0  0  0  0  0  0  0  0  0  0  0
   -6.4145  -10.7119   12.2253 N   0  0  0  0  0  0  0  0  0  0  0  0
   -6.0906  -11.8765   12.2095 O   0  0  0  0  0  0  0  0  0  0  0  0
   -8.2069  -16.1806   11.2567 C   0  0  0  0  0  0  0  0  0  0  0  0
   -7.1239  -16.8100   10.8111 N   0  0  0  0  0  0  0  0  0  0  0  0
   -7.0987  -18.1258   10.6903 C   0  0  0  0  0  0  0  0  0  0  0  0
   -8.1258  -18.8856   10.9984 N   0  0  0  0  0  0  0  0  0  0  0  0
   -9.2563  -18.3425   11.4544 C   0  0  0  0  0  0  0  0  0  0  0  0
   -9.3255  -16.9444   11.6038 C   0  0  0  0  0  0  0  0  0  0  0  0
  -10.5832  -16.6904   12.0798 N   0  0  0  0  0  0  0  0  0  0  0  0
  -11.2000  -17.8167   12.2013 N   0  0  0  0  0  0  0  0  0  0  0  0
  -10.4548  -18.8063   11.8492 N   0  0  0  0  0  0  0  0  0  0  0  0
  1  2  1  0
  1  9  1  0
  2  3  2  0
  2  4  1  0
  4  5  2  0
  4  8  1  0
  5  6  1  0
  6  7  2  0
  7  8  1  0
  9 10  2  0
  9 14  1  0
 10 11  1  0
 11 12  2  0
 12 13  1  0
 13 14  2  0
 13 17  1  0
 14 15  1  0
 15 16  1  0
 16 17  2  0
M  END
>  <Gold.Gold.Protein.RotatedWaterAtoms>  (296) 


>  <Gold.Id.Protein>  (296) 


>  <Gold.PLP.Chemscore.CHOScore>  (296) 
0.0000

>  <Gold.PLP.Chemscore.Hbond>  (296) 
1.2080

>  <Gold.PLP.Chemscore.Internal.Correction>  (296) 
0.2950

>  <Gold.PLP.Chemscore.Metal>  (296) 
0.0000

>  <Gold.PLP.Fitness>  (296) 
38.2560

>  <Gold.PLP.PLP>  (296) 
-34.7890

>  <Gold.PLP.ligand.clash>  (296) 
0.0000

>  <Gold.PLP.ligand.torsion>  (296) 
0.2260

>  <Gold.PLP.part.buried>  (296) 
-9.0538

>  <Gold.PLP.part.hbond>  (296) 
-2.0961

>  <Gold.PLP.part.metal>  (296) 
0.0000

>  <Gold.PLP.part.nonpolar>  (296) 
-24.4532

>  <Gold.PLP.part.repulsive>  (296) 
0.9878

>  <Gold.Protein.RotatedAtoms>  (296) 


>  <Gold.Protein.RotatedTorsions>  (296) 


>  <Gold.Protein.RotatedWaterAtoms>  (296) 


>  <Gold.Version>  (296) 
5.3.0

>  <PLP.Chemscore.CHOScore>  (296) 


>  <PLP.Chemscore.Hbond>  (296) 


>  <PLP.Chemscore.Internal.Correction>  (296) 


>  <PLP.Chemscore.Metal>  (296) 


>  <PLP.Fitness>  (296) 


>  <PLP.PLP>  (296) 


>  <PLP.ligand.clash>  (296) 


>  <PLP.ligand.torsion>  (296) 


>  <PLP.part.buried>  (296) 


>  <PLP.part.hbond>  (296) 


>  <PLP.part.metal>  (296) 


>  <PLP.part.nonpolar>  (296) 


>  <PLP.part.repulsive>  (296) 


>  <Version>  (296) 


$$$$
3296|Compound_2046|Compounds_3D_F|sdf|589|dock5|1
     RDKit          3D

 17 19  0  0  0  0  0  0  0  0999 V2000
   -8.1055  -15.4174   11.4306 N   0  0  0  0  0  0  0  0  0  0  0  0
   -6.8667  -14.9784   11.7301 C   0  0  0  0  0  0  0  0  0  0  0  0
   -5.9452  -15.7667   11.8076 O   0  0  0  0  0  0  0  0  0  0  0  0
   -6.6302  -13.5415   11.9635 C   0  0  0  0  0  0  0  0  0  0  0  0
   -5.5027  -12.9674   12.4856 C   0  0  0  0  0  0  0  0  0  0  0  0
   -5.7990  -11.5865   12.4925 C   0  0  0  0  0  0  0  0  0  0  0  0
   -7.0002  -11.4609   12.0065 N   0  0  0  0  0  0  0  0  0  0  0  0
   -7.4775  -12.5288   11.7010 O   0  0  0  0  0  0  0  0  0  0  0  0
   -8.3293  -16.7697   11.2159 C   0  0  0  0  0  0  0  0  0  0  0  0
   -7.3993  -17.5310   10.6473 N   0  0  0  0  0  0  0  0  0  0  0  0
   -7.6038  -18.8200   10.4395 C   0  0  0  0  0  0  0  0  0  0  0  0
   -8.7215  -19.4237   10.7764 N   0  0  0  0  0  0  0  0  0  0  0  0
   -9.7120  -18.7404   11.3534 C   0  0  0  0  0  0  0  0  0  0  0  0
   -9.5351  -17.3654   11.5984 C   0  0  0  0  0  0  0  0  0  0  0  0
  -10.6980  -16.9474   12.1864 N   0  0  0  0  0  0  0  0  0  0  0  0
  -11.4861  -17.9640   12.2819 N   0  0  0  0  0  0  0  0  0  0  0  0
  -10.9427  -19.0317   11.8091 N   0  0  0  0  0  0  0  0  0  0  0  0
  1  2  1  0
  1  9  1  0
  2  3  2  0
  2  4  1  0
  4  5  2  0
  4  8  1  0
  5  6  1  0
  6  7  2  0
  7  8  1  0
  9 10  2  0
  9 14  1  0
 10 11  1  0
 11 12  2  0
 12 13  1  0
 13 14  2  0
 13 17  1  0
 14 15  1  0
 15 16  1  0
 16 17  2  0
M  END
>  <Gold.Gold.Protein.RotatedWaterAtoms>  (297) 


>  <Gold.Id.Protein>  (297) 


>  <Gold.PLP.Chemscore.CHOScore>  (297) 
0.9444

>  <Gold.PLP.Chemscore.Hbond>  (297) 
0.6460

>  <Gold.PLP.Chemscore.Internal.Correction>  (297) 
0.2950

>  <Gold.PLP.Chemscore.Metal>  (297) 
0.0000

>  <Gold.PLP.Fitness>  (297) 
38.8122

>  <Gold.PLP.PLP>  (297) 
-34.3462

>  <Gold.PLP.ligand.clash>  (297) 
0.0000

>  <Gold.PLP.ligand.torsion>  (297) 
0.3002

>  <Gold.PLP.part.buried>  (297) 
-9.3778

>  <Gold.PLP.part.hbond>  (297) 
-2.4930

>  <Gold.PLP.part.metal>  (297) 
0.0000

>  <Gold.PLP.part.nonpolar>  (297) 
-23.0883

>  <Gold.PLP.part.repulsive>  (297) 
0.6562

>  <Gold.Protein.RotatedAtoms>  (297) 


>  <Gold.Protein.RotatedTorsions>  (297) 


>  <Gold.Protein.RotatedWaterAtoms>  (297) 


>  <Gold.Version>  (297) 
5.3.0

>  <PLP.Chemscore.CHOScore>  (297) 


>  <PLP.Chemscore.Hbond>  (297) 


>  <PLP.Chemscore.Internal.Correction>  (297) 


>  <PLP.Chemscore.Metal>  (297) 


>  <PLP.Fitness>  (297) 


>  <PLP.PLP>  (297) 


>  <PLP.ligand.clash>  (297) 


>  <PLP.ligand.torsion>  (297) 


>  <PLP.part.buried>  (297) 


>  <PLP.part.hbond>  (297) 


>  <PLP.part.metal>  (297) 


>  <PLP.part.nonpolar>  (297) 


>  <PLP.part.repulsive>  (297) 


>  <Version>  (297) 


$$$$
3297|Compound_2046|Compounds_3D_F|sdf|589|dock6|1
     RDKit          3D

 17 19  0  0  0  0  0  0  0  0999 V2000
   -7.3999  -14.7457   11.8169 N   0  0  0  0  0  0  0  0  0  0  0  0
   -8.1345  -13.6626   11.4940 C   0  0  0  0  0  0  0  0  0  0  0  0
   -9.2342  -13.8012   10.9961 O   0  0  0  0  0  0  0  0  0  0  0  0
   -7.6032  -12.3100   11.7453 C   0  0  0  0  0  0  0  0  0  0  0  0
   -6.3788  -11.9908   12.2672 C   0  0  0  0  0  0  0  0  0  0  0  0
   -6.3812  -10.5787   12.2950 C   0  0  0  0  0  0  0  0  0  0  0  0
   -7.5319  -10.1988   11.8191 N   0  0  0  0  0  0  0  0  0  0  0  0
   -8.2222  -11.1394   11.5024 O   0  0  0  0  0  0  0  0  0  0  0  0
   -7.8972  -16.0184   11.5761 C   0  0  0  0  0  0  0  0  0  0  0  0
   -7.1557  -16.9324   10.9579 N   0  0  0  0  0  0  0  0  0  0  0  0
   -7.6212  -18.1472   10.7249 C   0  0  0  0  0  0  0  0  0  0  0  0
   -8.8278  -18.5248   11.0839 N   0  0  0  0  0  0  0  0  0  0  0  0
   -9.6440  -17.6752   11.7106 C   0  0  0  0  0  0  0  0  0  0  0  0
   -9.1871  -16.3719   11.9839 C   0  0  0  0  0  0  0  0  0  0  0  0
  -10.2252  -15.7478   12.6208 N   0  0  0  0  0  0  0  0  0  0  0  0
  -11.1989  -16.5883   12.7172 N   0  0  0  0  0  0  0  0  0  0  0  0
  -10.8950  -17.7279   12.2000 N   0  0  0  0  0  0  0  0  0  0  0  0
  1  2  1  0
  1  9  1  0
  2  3  2  0
  2  4  1  0
  4  5  2  0
  4  8  1  0
  5  6  1  0
  6  7  2  0
  7  8  1  0
  9 10  2  0
  9 14  1  0
 10 11  1  0
 11 12  2  0
 12 13  1  0
 13 14  2  0
 13 17  1  0
 14 15  1  0
 15 16  1  0
 16 17  2  0
M  END
>  <Gold.Gold.Protein.RotatedWaterAtoms>  (298) 


>  <Gold.Id.Protein>  (298) 


>  <Gold.PLP.Chemscore.CHOScore>  (298) 
1.0468

>  <Gold.PLP.Chemscore.Hbond>  (298) 
1.0586

>  <Gold.PLP.Chemscore.Internal.Correction>  (298) 
0.2950

>  <Gold.PLP.Chemscore.Metal>  (298) 
0.0000

>  <Gold.PLP.Fitness>  (298) 
44.1805

>  <Gold.PLP.PLP>  (298) 
-38.4275

>  <Gold.PLP.ligand.clash>  (298) 
0.0000

>  <Gold.PLP.ligand.torsion>  (298) 
0.4291

>  <Gold.PLP.part.buried>  (298) 
-8.8079

>  <Gold.PLP.part.hbond>  (298) 
-7.1169

>  <Gold.PLP.part.metal>  (298) 
0.0000

>  <Gold.PLP.part.nonpolar>  (298) 
-23.9594

>  <Gold.PLP.part.repulsive>  (298) 
1.6420

>  <Gold.Protein.RotatedAtoms>  (298) 


>  <Gold.Protein.RotatedTorsions>  (298) 


>  <Gold.Protein.RotatedWaterAtoms>  (298) 


>  <Gold.Version>  (298) 
5.3.0

>  <PLP.Chemscore.CHOScore>  (298) 


>  <PLP.Chemscore.Hbond>  (298) 


>  <PLP.Chemscore.Internal.Correction>  (298) 


>  <PLP.Chemscore.Metal>  (298) 


>  <PLP.Fitness>  (298) 


>  <PLP.PLP>  (298) 


>  <PLP.ligand.clash>  (298) 


>  <PLP.ligand.torsion>  (298) 


>  <PLP.part.buried>  (298) 


>  <PLP.part.hbond>  (298) 


>  <PLP.part.metal>  (298) 


>  <PLP.part.nonpolar>  (298) 


>  <PLP.part.repulsive>  (298) 


>  <Version>  (298) 


$$$$
3298|Compound_2048|Compounds_3D_F|sdf|590|dock1|1
     RDKit          3D

 24 25  0  0  0  0  0  0  0  0999 V2000
   -9.8443  -18.4347   10.1847 N   0  0  0  0  0  0  0  0  0  0  0  0
  -10.9791  -18.2654   10.8922 C   0  0  0  0  0  0  0  0  0  0  0  0
  -10.9403  -17.7335   11.9852 O   0  0  0  0  0  0  0  0  0  0  0  0
  -12.2673  -18.7250   10.3405 C   0  0  0  0  0  0  0  0  0  0  0  0
  -12.5527  -18.9897    9.0283 C   0  0  0  0  0  0  0  0  0  0  0  0
  -13.9069  -19.3905    9.0514 C   0  0  0  0  0  0  0  0  0  0  0  0
  -14.2904  -19.3351   10.2942 N   0  0  0  0  0  0  0  0  0  0  0  0
  -13.3985  -18.9745   11.0264 O   0  0  0  0  0  0  0  0  0  0  0  0
   -8.6245  -18.0044   10.7087 C   0  0  0  0  0  0  0  0  0  0  0  0
   -8.5510  -16.8302   11.3138 N   0  0  0  0  0  0  0  0  0  0  0  0
   -7.4158  -16.3815   11.8262 C   0  0  0  0  0  0  0  0  0  0  0  0
   -7.3871  -15.1348   12.4551 N   0  0  0  0  0  0  0  0  0  0  0  0
   -6.8549  -14.0715   11.8210 C   0  0  0  0  0  0  0  0  0  0  0  0
   -6.3992  -14.1980   10.7042 O   0  0  0  0  0  0  0  0  0  0  0  0
   -6.8247  -12.7265   12.4994 C   0  0  0  0  0  0  0  0  0  0  0  0
   -6.2480  -17.1399   11.7445 C   0  0  0  0  0  0  0  0  0  0  0  0
   -4.7421  -16.5351   12.4303 S   0  0  0  0  0  0  0  0  0  0  0  0
   -3.6235  -16.8225   11.0370 C   0  0  0  0  0  0  0  0  0  0  0  0
   -2.9210  -17.0027   10.1624 N   0  0  0  0  0  0  0  0  0  0  0  0
   -6.2869  -18.3793   11.1155 C   0  0  0  0  0  0  0  0  0  0  0  0
   -7.4984  -18.8202   10.5940 C   0  0  0  0  0  0  0  0  0  0  0  0
   -7.6074  -20.3833    9.7876 S   0  0  0  0  0  0  0  0  0  0  0  0
   -8.0099  -19.8418    8.1073 C   0  0  0  0  0  0  0  0  0  0  0  0
   -8.2621  -19.5016    7.0531 N   0  0  0  0  0  0  0  0  0  0  0  0
  1  2  1  0
  1  9  1  0
  2  3  2  0
  2  4  1  0
  4  5  2  0
  4  8  1  0
  5  6  1  0
  6  7  2  0
  7  8  1  0
  9 10  2  0
  9 21  1  0
 10 11  1  0
 11 12  1  0
 11 16  2  0
 12 13  1  0
 13 14  2  0
 13 15  1  0
 16 17  1  0
 16 20  1  0
 17 18  1  0
 18 19  3  0
 20 21  2  0
 21 22  1  0
 22 23  1  0
 23 24  3  0
M  END
>  <Gold.Gold.Protein.RotatedWaterAtoms>  (299) 


>  <Gold.Id.Protein>  (299) 


>  <Gold.PLP.Chemscore.CHOScore>  (299) 
0.8914

>  <Gold.PLP.Chemscore.Hbond>  (299) 
3.0043

>  <Gold.PLP.Chemscore.Internal.Correction>  (299) 
0.7673

>  <Gold.PLP.Chemscore.Metal>  (299) 
0.0000

>  <Gold.PLP.Fitness>  (299) 
55.1822

>  <Gold.PLP.PLP>  (299) 
-45.4661

>  <Gold.PLP.ligand.clash>  (299) 
0.0000

>  <Gold.PLP.ligand.torsion>  (299) 
1.3690

>  <Gold.PLP.part.buried>  (299) 
-7.0873

>  <Gold.PLP.part.hbond>  (299) 
-3.8354

>  <Gold.PLP.part.metal>  (299) 
0.0000

>  <Gold.PLP.part.nonpolar>  (299) 
-36.1204

>  <Gold.PLP.part.repulsive>  (299) 
1.3554

>  <Gold.Protein.RotatedAtoms>  (299) 


>  <Gold.Protein.RotatedTorsions>  (299) 


>  <Gold.Protein.RotatedWaterAtoms>  (299) 


>  <Gold.Version>  (299) 
5.3.0

>  <PLP.Chemscore.CHOScore>  (299) 


>  <PLP.Chemscore.Hbond>  (299) 


>  <PLP.Chemscore.Internal.Correction>  (299) 


>  <PLP.Chemscore.Metal>  (299) 


>  <PLP.Fitness>  (299) 


>  <PLP.PLP>  (299) 


>  <PLP.ligand.clash>  (299) 


>  <PLP.ligand.torsion>  (299) 


>  <PLP.part.buried>  (299) 


>  <PLP.part.hbond>  (299) 


>  <PLP.part.metal>  (299) 


>  <PLP.part.nonpolar>  (299) 


>  <PLP.part.repulsive>  (299) 


>  <Version>  (299) 


$$$$
3299|Compound_2048|Compounds_3D_F|sdf|590|dock2|1
     RDKit          3D

 24 25  0  0  0  0  0  0  0  0999 V2000
  -10.5920  -17.8332   10.2999 N   0  0  0  0  0  0  0  0  0  0  0  0
  -11.5055  -18.4401   11.0838 C   0  0  0  0  0  0  0  0  0  0  0  0
  -11.3219  -18.5168   12.2835 O   0  0  0  0  0  0  0  0  0  0  0  0
  -12.7271  -19.0106   10.4862 C   0  0  0  0  0  0  0  0  0  0  0  0
  -13.1369  -18.8970    9.1852 C   0  0  0  0  0  0  0  0  0  0  0  0
  -14.3506  -19.6184    9.1491 C   0  0  0  0  0  0  0  0  0  0  0  0
  -14.5498  -20.0723   10.3529 N   0  0  0  0  0  0  0  0  0  0  0  0
  -13.6618  -19.7531   11.1086 O   0  0  0  0  0  0  0  0  0  0  0  0
   -9.4335  -17.2978   10.8644 C   0  0  0  0  0  0  0  0  0  0  0  0
   -9.4527  -16.0685   11.3532 N   0  0  0  0  0  0  0  0  0  0  0  0
   -8.3783  -15.5198   11.8984 C   0  0  0  0  0  0  0  0  0  0  0  0
   -8.4468  -14.2183   12.4003 N   0  0  0  0  0  0  0  0  0  0  0  0
   -7.6189  -13.2673   11.9244 C   0  0  0  0  0  0  0  0  0  0  0  0
   -6.8130  -13.5427   11.0609 O   0  0  0  0  0  0  0  0  0  0  0  0
   -7.6935  -11.8632   12.4656 C   0  0  0  0  0  0  0  0  0  0  0  0
   -7.1786  -16.2271   11.9766 C   0  0  0  0  0  0  0  0  0  0  0  0
   -5.7542  -15.4890   12.7047 S   0  0  0  0  0  0  0  0  0  0  0  0
   -4.4867  -16.6727   12.1876 C   0  0  0  0  0  0  0  0  0  0  0  0
   -3.6906  -17.4155   11.8630 N   0  0  0  0  0  0  0  0  0  0  0  0
   -7.1205  -17.5217   11.4731 C   0  0  0  0  0  0  0  0  0  0  0  0
   -8.2705  -18.0672   10.9127 C   0  0  0  0  0  0  0  0  0  0  0  0
   -8.2561  -19.7041   10.2603 S   0  0  0  0  0  0  0  0  0  0  0  0
   -8.2503  -19.3353    8.4876 C   0  0  0  0  0  0  0  0  0  0  0  0
   -8.2463  -19.1033    7.3755 N   0  0  0  0  0  0  0  0  0  0  0  0
  1  2  1  0
  1  9  1  0
  2  3  2  0
  2  4  1  0
  4  5  2  0
  4  8  1  0
  5  6  1  0
  6  7  2  0
  7  8  1  0
  9 10  2  0
  9 21  1  0
 10 11  1  0
 11 12  1  0
 11 16  2  0
 12 13  1  0
 13 14  2  0
 13 15  1  0
 16 17  1  0
 16 20  1  0
 17 18  1  0
 18 19  3  0
 20 21  2  0
 21 22  1  0
 22 23  1  0
 23 24  3  0
M  END
>  <Gold.Gold.Protein.RotatedWaterAtoms>  (300) 


>  <Gold.Id.Protein>  (300) 


>  <Gold.PLP.Chemscore.CHOScore>  (300) 
1.0000

>  <Gold.PLP.Chemscore.Hbond>  (300) 
2.3200

>  <Gold.PLP.Chemscore.Internal.Correction>  (300) 
0.7673

>  <Gold.PLP.Chemscore.Metal>  (300) 
0.0000

>  <Gold.PLP.Fitness>  (300) 
57.0355

>  <Gold.PLP.PLP>  (300) 
-49.5367

>  <Gold.PLP.ligand.clash>  (300) 
0.0000

>  <Gold.PLP.ligand.torsion>  (300) 
1.6143

>  <Gold.PLP.part.buried>  (300) 
-8.3477

>  <Gold.PLP.part.hbond>  (300) 
-5.3398

>  <Gold.PLP.part.metal>  (300) 
0.0000

>  <Gold.PLP.part.nonpolar>  (300) 
-36.2538

>  <Gold.PLP.part.repulsive>  (300) 
0.6634

>  <Gold.Protein.RotatedAtoms>  (300) 


>  <Gold.Protein.RotatedTorsions>  (300) 


>  <Gold.Protein.RotatedWaterAtoms>  (300) 


>  <Gold.Version>  (300) 
5.3.0

>  <PLP.Chemscore.CHOScore>  (300) 


>  <PLP.Chemscore.Hbond>  (300) 


>  <PLP.Chemscore.Internal.Correction>  (300) 


>  <PLP.Chemscore.Metal>  (300) 


>  <PLP.Fitness>  (300) 


>  <PLP.PLP>  (300) 


>  <PLP.ligand.clash>  (300) 


>  <PLP.ligand.torsion>  (300) 


>  <PLP.part.buried>  (300) 


>  <PLP.part.hbond>  (300) 


>  <PLP.part.metal>  (300) 


>  <PLP.part.nonpolar>  (300) 


>  <PLP.part.repulsive>  (300) 


>  <Version>  (300) 


$$$$
3300|Compound_2048|Compounds_3D_F|sdf|590|dock3|1
     RDKit          3D

 24 25  0  0  0  0  0  0  0  0999 V2000
   -9.5964  -18.5264   10.0240 N   0  0  0  0  0  0  0  0  0  0  0  0
  -10.7691  -18.2038   10.6052 C   0  0  0  0  0  0  0  0  0  0  0  0
  -10.7814  -17.5184   11.6097 O   0  0  0  0  0  0  0  0  0  0  0  0
  -12.0368  -18.6821   10.0227 C   0  0  0  0  0  0  0  0  0  0  0  0
  -13.2951  -18.2198   10.2986 C   0  0  0  0  0  0  0  0  0  0  0  0
  -14.1324  -19.0106    9.4809 C   0  0  0  0  0  0  0  0  0  0  0  0
  -13.3539  -19.8249    8.8283 N   0  0  0  0  0  0  0  0  0  0  0  0
  -12.1897  -19.6579    9.1078 O   0  0  0  0  0  0  0  0  0  0  0  0
   -8.3965  -18.0782   10.5778 C   0  0  0  0  0  0  0  0  0  0  0  0
   -8.3634  -16.9190   11.2147 N   0  0  0  0  0  0  0  0  0  0  0  0
   -7.2483  -16.4543   11.7562 C   0  0  0  0  0  0  0  0  0  0  0  0
   -7.2624  -15.2245   12.4180 N   0  0  0  0  0  0  0  0  0  0  0  0
   -6.8145  -14.1173   11.7936 C   0  0  0  0  0  0  0  0  0  0  0  0
   -6.3976  -14.1897   10.6570 O   0  0  0  0  0  0  0  0  0  0  0  0
   -6.8304  -12.7907   12.5075 C   0  0  0  0  0  0  0  0  0  0  0  0
   -6.0596  -17.1791   11.6726 C   0  0  0  0  0  0  0  0  0  0  0  0
   -4.5807  -16.5532   12.3972 S   0  0  0  0  0  0  0  0  0  0  0  0
   -3.4163  -16.8510   11.0441 C   0  0  0  0  0  0  0  0  0  0  0  0
   -2.6856  -17.0382   10.1945 N   0  0  0  0  0  0  0  0  0  0  0  0
   -6.0559  -18.4018   11.0107 C   0  0  0  0  0  0  0  0  0  0  0  0
   -7.2473  -18.8606   10.4592 C   0  0  0  0  0  0  0  0  0  0  0  0
   -7.3025  -20.4039    9.6104 S   0  0  0  0  0  0  0  0  0  0  0  0
   -7.8402  -19.8432    7.9748 C   0  0  0  0  0  0  0  0  0  0  0  0
   -8.1773  -19.4910    6.9487 N   0  0  0  0  0  0  0  0  0  0  0  0
  1  2  1  0
  1  9  1  0
  2  3  2  0
  2  4  1  0
  4  5  2  0
  4  8  1  0
  5  6  1  0
  6  7  2  0
  7  8  1  0
  9 10  2  0
  9 21  1  0
 10 11  1  0
 11 12  1  0
 11 16  2  0
 12 13  1  0
 13 14  2  0
 13 15  1  0
 16 17  1  0
 16 20  1  0
 17 18  1  0
 18 19  3  0
 20 21  2  0
 21 22  1  0
 22 23  1  0
 23 24  3  0
M  END
>  <Gold.Gold.Protein.RotatedWaterAtoms>  (301) 


>  <Gold.Id.Protein>  (301) 


>  <Gold.PLP.Chemscore.CHOScore>  (301) 
0.0000

>  <Gold.PLP.Chemscore.Hbond>  (301) 
2.9900

>  <Gold.PLP.Chemscore.Internal.Correction>  (301) 
0.7673

>  <Gold.PLP.Chemscore.Metal>  (301) 
0.0000

>  <Gold.PLP.Fitness>  (301) 
53.4133

>  <Gold.PLP.PLP>  (301) 
-46.0881

>  <Gold.PLP.ligand.clash>  (301) 
0.0000

>  <Gold.PLP.ligand.torsion>  (301) 
1.2060

>  <Gold.PLP.part.buried>  (301) 
-6.7597

>  <Gold.PLP.part.hbond>  (301) 
-4.0732

>  <Gold.PLP.part.metal>  (301) 
0.0000

>  <Gold.PLP.part.nonpolar>  (301) 
-36.0234

>  <Gold.PLP.part.repulsive>  (301) 
0.8766

>  <Gold.Protein.RotatedAtoms>  (301) 


>  <Gold.Protein.RotatedTorsions>  (301) 


>  <Gold.Protein.RotatedWaterAtoms>  (301) 


>  <Gold.Version>  (301) 
5.3.0

>  <PLP.Chemscore.CHOScore>  (301) 


>  <PLP.Chemscore.Hbond>  (301) 


>  <PLP.Chemscore.Internal.Correction>  (301) 


>  <PLP.Chemscore.Metal>  (301) 


>  <PLP.Fitness>  (301) 


>  <PLP.PLP>  (301) 


>  <PLP.ligand.clash>  (301) 


>  <PLP.ligand.torsion>  (301) 


>  <PLP.part.buried>  (301) 


>  <PLP.part.hbond>  (301) 


>  <PLP.part.metal>  (301) 


>  <PLP.part.nonpolar>  (301) 


>  <PLP.part.repulsive>  (301) 


>  <Version>  (301) 


$$$$
3301|Compound_2049|Compounds_3D_F|sdf|591|dock1|1
     RDKit          3D

 18 19  0  0  0  0  0  0  0  0999 V2000
   -8.3621  -14.9653   11.9112 N   0  0  0  0  0  0  0  0  0  0  0  0
   -7.0542  -14.8026   12.1940 C   0  0  0  0  0  0  0  0  0  0  0  0
   -6.3259  -15.7726   12.2814 O   0  0  0  0  0  0  0  0  0  0  0  0
   -6.5078  -13.4502   12.3969 C   0  0  0  0  0  0  0  0  0  0  0  0
   -5.2408  -13.1440   12.7987 C   0  0  0  0  0  0  0  0  0  0  0  0
   -5.1610  -11.7936   12.8555 N   0  0  0  0  0  0  0  0  0  0  0  0
   -6.3700  -11.2928   12.4910 C   0  0  0  0  0  0  0  0  0  0  0  0
   -7.1719  -12.2799   12.2128 N   0  0  0  0  0  0  0  0  0  0  0  0
   -8.8774  -16.2376   11.7252 C   0  0  0  0  0  0  0  0  0  0  0  0
  -10.1369  -16.5684   11.8326 N   0  0  0  0  0  0  0  0  0  0  0  0
  -10.2535  -17.9018   11.5788 C   0  0  0  0  0  0  0  0  0  0  0  0
   -9.0044  -18.3713   11.3115 C   0  0  0  0  0  0  0  0  0  0  0  0
   -8.1623  -17.3271   11.4010 O   0  0  0  0  0  0  0  0  0  0  0  0
  -11.4980  -18.6893   11.5925 C   0  0  0  0  0  0  0  0  0  0  0  0
  -12.2222  -18.6652   12.5672 O   0  0  0  0  0  0  0  0  0  0  0  0
  -11.8320  -19.4384   10.5224 O   0  0  0  0  0  0  0  0  0  0  0  0
  -13.2490  -19.6358   10.2738 C   0  0  0  0  0  0  0  0  0  0  0  0
  -13.6207  -19.0173    8.9242 C   0  0  0  0  0  0  0  0  0  0  0  0
  1  2  1  0
  1  9  1  0
  2  3  2  0
  2  4  1  0
  4  5  2  0
  4  8  1  0
  5  6  1  0
  6  7  1  0
  7  8  2  0
  9 10  2  0
  9 13  1  0
 10 11  1  0
 11 12  2  0
 11 14  1  0
 12 13  1  0
 14 15  2  0
 14 16  1  0
 16 17  1  0
 17 18  1  0
M  END
>  <Gold.Gold.Protein.RotatedWaterAtoms>  (302) 


>  <Gold.Id.Protein>  (302) 


>  <Gold.PLP.Chemscore.CHOScore>  (302) 
1.0000

>  <Gold.PLP.Chemscore.Hbond>  (302) 
2.7840

>  <Gold.PLP.Chemscore.Internal.Correction>  (302) 
0.0633

>  <Gold.PLP.Chemscore.Metal>  (302) 
0.0000

>  <Gold.PLP.Fitness>  (302) 
50.5231

>  <Gold.PLP.PLP>  (302) 
-42.7669

>  <Gold.PLP.ligand.clash>  (302) 
0.0000

>  <Gold.PLP.ligand.torsion>  (302) 
1.8295

>  <Gold.PLP.part.buried>  (302) 
-8.4923

>  <Gold.PLP.part.hbond>  (302) 
-3.0063

>  <Gold.PLP.part.metal>  (302) 
0.0000

>  <Gold.PLP.part.nonpolar>  (302) 
-31.1980

>  <Gold.PLP.part.repulsive>  (302) 
0.4904

>  <Gold.Protein.RotatedAtoms>  (302) 


>  <Gold.Protein.RotatedTorsions>  (302) 


>  <Gold.Protein.RotatedWaterAtoms>  (302) 


>  <Gold.Version>  (302) 
5.3.0

>  <PLP.Chemscore.CHOScore>  (302) 


>  <PLP.Chemscore.Hbond>  (302) 


>  <PLP.Chemscore.Internal.Correction>  (302) 


>  <PLP.Chemscore.Metal>  (302) 


>  <PLP.Fitness>  (302) 


>  <PLP.PLP>  (302) 


>  <PLP.ligand.clash>  (302) 


>  <PLP.ligand.torsion>  (302) 


>  <PLP.part.buried>  (302) 


>  <PLP.part.hbond>  (302) 


>  <PLP.part.metal>  (302) 


>  <PLP.part.nonpolar>  (302) 


>  <PLP.part.repulsive>  (302) 


>  <Version>  (302) 


$$$$
3302|Compound_2049|Compounds_3D_F|sdf|591|dock2|1
     RDKit          3D

 18 19  0  0  0  0  0  0  0  0999 V2000
   -7.6283  -16.2701   11.7126 N   0  0  0  0  0  0  0  0  0  0  0  0
   -7.9327  -14.9632   11.8412 C   0  0  0  0  0  0  0  0  0  0  0  0
   -9.0840  -14.5921   11.7158 O   0  0  0  0  0  0  0  0  0  0  0  0
   -6.8710  -13.9856   12.1336 C   0  0  0  0  0  0  0  0  0  0  0  0
   -5.5545  -14.2662   12.3542 C   0  0  0  0  0  0  0  0  0  0  0  0
   -4.9327  -13.0853   12.5825 N   0  0  0  0  0  0  0  0  0  0  0  0
   -5.8680  -12.1035   12.4998 C   0  0  0  0  0  0  0  0  0  0  0  0
   -7.0228  -12.6392   12.2275 N   0  0  0  0  0  0  0  0  0  0  0  0
   -8.6259  -17.1893   11.4326 C   0  0  0  0  0  0  0  0  0  0  0  0
   -9.8644  -17.1121   11.8419 N   0  0  0  0  0  0  0  0  0  0  0  0
  -10.5417  -18.1944   11.3668 C   0  0  0  0  0  0  0  0  0  0  0  0
   -9.6578  -18.9383   10.6475 C   0  0  0  0  0  0  0  0  0  0  0  0
   -8.4753  -18.3001   10.6930 O   0  0  0  0  0  0  0  0  0  0  0  0
  -11.9642  -18.5035   11.5906 C   0  0  0  0  0  0  0  0  0  0  0  0
  -12.5537  -18.0082   12.5298 O   0  0  0  0  0  0  0  0  0  0  0  0
  -12.6113  -19.3383   10.7526 O   0  0  0  0  0  0  0  0  0  0  0  0
  -14.0347  -19.1158   10.5713 C   0  0  0  0  0  0  0  0  0  0  0  0
  -14.4847  -19.7442    9.2503 C   0  0  0  0  0  0  0  0  0  0  0  0
  1  2  1  0
  1  9  1  0
  2  3  2  0
  2  4  1  0
  4  5  2  0
  4  8  1  0
  5  6  1  0
  6  7  1  0
  7  8  2  0
  9 10  2  0
  9 13  1  0
 10 11  1  0
 11 12  2  0
 11 14  1  0
 12 13  1  0
 14 15  2  0
 14 16  1  0
 16 17  1  0
 17 18  1  0
M  END
>  <Gold.Gold.Protein.RotatedWaterAtoms>  (303) 


>  <Gold.Id.Protein>  (303) 


>  <Gold.PLP.Chemscore.CHOScore>  (303) 
0.0000

>  <Gold.PLP.Chemscore.Hbond>  (303) 
2.6419

>  <Gold.PLP.Chemscore.Internal.Correction>  (303) 
0.0633

>  <Gold.PLP.Chemscore.Metal>  (303) 
0.0000

>  <Gold.PLP.Fitness>  (303) 
48.8703

>  <Gold.PLP.PLP>  (303) 
-42.6961

>  <Gold.PLP.ligand.clash>  (303) 
0.0000

>  <Gold.PLP.ligand.torsion>  (303) 
0.9074

>  <Gold.PLP.part.buried>  (303) 
-10.2002

>  <Gold.PLP.part.hbond>  (303) 
-4.1349

>  <Gold.PLP.part.metal>  (303) 
0.0000

>  <Gold.PLP.part.nonpolar>  (303) 
-29.0021

>  <Gold.PLP.part.repulsive>  (303) 
0.5728

>  <Gold.Protein.RotatedAtoms>  (303) 


>  <Gold.Protein.RotatedTorsions>  (303) 


>  <Gold.Protein.RotatedWaterAtoms>  (303) 


>  <Gold.Version>  (303) 
5.3.0

>  <PLP.Chemscore.CHOScore>  (303) 


>  <PLP.Chemscore.Hbond>  (303) 


>  <PLP.Chemscore.Internal.Correction>  (303) 


>  <PLP.Chemscore.Metal>  (303) 


>  <PLP.Fitness>  (303) 


>  <PLP.PLP>  (303) 


>  <PLP.ligand.clash>  (303) 


>  <PLP.ligand.torsion>  (303) 


>  <PLP.part.buried>  (303) 


>  <PLP.part.hbond>  (303) 


>  <PLP.part.metal>  (303) 


>  <PLP.part.nonpolar>  (303) 


>  <PLP.part.repulsive>  (303) 


>  <Version>  (303) 


$$$$
3303|Compound_2049|Compounds_3D_F|sdf|591|dock3|1
     RDKit          3D

 18 19  0  0  0  0  0  0  0  0999 V2000
   -8.3142  -14.9864   12.0307 N   0  0  0  0  0  0  0  0  0  0  0  0
   -7.0007  -14.7417   11.8516 C   0  0  0  0  0  0  0  0  0  0  0  0
   -6.2746  -15.6127   11.4120 O   0  0  0  0  0  0  0  0  0  0  0  0
   -6.4457  -13.4199   12.1883 C   0  0  0  0  0  0  0  0  0  0  0  0
   -5.1811  -13.1651   12.6314 C   0  0  0  0  0  0  0  0  0  0  0  0
   -5.0909  -11.8270   12.8173 N   0  0  0  0  0  0  0  0  0  0  0  0
   -6.2913  -11.2826   12.4888 C   0  0  0  0  0  0  0  0  0  0  0  0
   -7.0979  -12.2312   12.1091 N   0  0  0  0  0  0  0  0  0  0  0  0
   -8.8356  -16.2312   11.7188 C   0  0  0  0  0  0  0  0  0  0  0  0
  -10.0642  -16.6159   11.9421 N   0  0  0  0  0  0  0  0  0  0  0  0
  -10.1995  -17.8975   11.5004 C   0  0  0  0  0  0  0  0  0  0  0  0
   -8.9943  -18.2789   10.9965 C   0  0  0  0  0  0  0  0  0  0  0  0
   -8.1599  -17.2337   11.1341 O   0  0  0  0  0  0  0  0  0  0  0  0
  -11.4210  -18.7183   11.5584 C   0  0  0  0  0  0  0  0  0  0  0  0
  -12.1802  -18.6131   12.5005 O   0  0  0  0  0  0  0  0  0  0  0  0
  -11.6951  -19.5880   10.5653 O   0  0  0  0  0  0  0  0  0  0  0  0
  -13.0960  -19.8561   10.2932 C   0  0  0  0  0  0  0  0  0  0  0  0
  -13.6344  -18.8100    9.3142 C   0  0  0  0  0  0  0  0  0  0  0  0
  1  2  1  0
  1  9  1  0
  2  3  2  0
  2  4  1  0
  4  5  2  0
  4  8  1  0
  5  6  1  0
  6  7  1  0
  7  8  2  0
  9 10  2  0
  9 13  1  0
 10 11  1  0
 11 12  2  0
 11 14  1  0
 12 13  1  0
 14 15  2  0
 14 16  1  0
 16 17  1  0
 17 18  1  0
M  END
>  <Gold.Gold.Protein.RotatedWaterAtoms>  (304) 


>  <Gold.Id.Protein>  (304) 


>  <Gold.PLP.Chemscore.CHOScore>  (304) 
1.0000

>  <Gold.PLP.Chemscore.Hbond>  (304) 
2.9760

>  <Gold.PLP.Chemscore.Internal.Correction>  (304) 
0.0633

>  <Gold.PLP.Chemscore.Metal>  (304) 
0.0000

>  <Gold.PLP.Fitness>  (304) 
50.9852

>  <Gold.PLP.PLP>  (304) 
-41.8770

>  <Gold.PLP.ligand.clash>  (304) 
0.0000

>  <Gold.PLP.ligand.torsion>  (304) 
1.4416

>  <Gold.PLP.part.buried>  (304) 
-8.6262

>  <Gold.PLP.part.hbond>  (304) 
-3.2652

>  <Gold.PLP.part.metal>  (304) 
0.0000

>  <Gold.PLP.part.nonpolar>  (304) 
-30.0244

>  <Gold.PLP.part.repulsive>  (304) 
0.4769

>  <Gold.Protein.RotatedAtoms>  (304) 


>  <Gold.Protein.RotatedTorsions>  (304) 


>  <Gold.Protein.RotatedWaterAtoms>  (304) 


>  <Gold.Version>  (304) 
5.3.0

>  <PLP.Chemscore.CHOScore>  (304) 


>  <PLP.Chemscore.Hbond>  (304) 


>  <PLP.Chemscore.Internal.Correction>  (304) 


>  <PLP.Chemscore.Metal>  (304) 


>  <PLP.Fitness>  (304) 


>  <PLP.PLP>  (304) 


>  <PLP.ligand.clash>  (304) 


>  <PLP.ligand.torsion>  (304) 


>  <PLP.part.buried>  (304) 


>  <PLP.part.hbond>  (304) 


>  <PLP.part.metal>  (304) 


>  <PLP.part.nonpolar>  (304) 


>  <PLP.part.repulsive>  (304) 


>  <Version>  (304) 


$$$$
3304|Compound_2051|Compounds_3D_F|sdf|592|dock1|1
     RDKit          3D

 17 18  0  0  0  0  0  0  0  0999 V2000
   -8.1582  -15.8682   12.1201 N   0  0  0  0  0  0  0  0  0  0  0  0
   -8.2720  -14.5252   12.1413 C   0  0  0  0  0  0  0  0  0  0  0  0
   -9.3721  -14.0078   12.1090 O   0  0  0  0  0  0  0  0  0  0  0  0
   -7.0632  -13.6856   12.2036 C   0  0  0  0  0  0  0  0  0  0  0  0
   -5.7768  -14.1312   12.2949 C   0  0  0  0  0  0  0  0  0  0  0  0
   -4.9823  -13.0353   12.3250 N   0  0  0  0  0  0  0  0  0  0  0  0
   -5.7847  -11.9415   12.2535 C   0  0  0  0  0  0  0  0  0  0  0  0
   -7.0250  -12.3293   12.1753 N   0  0  0  0  0  0  0  0  0  0  0  0
   -9.3011  -16.6640   12.0560 C   0  0  0  0  0  0  0  0  0  0  0  0
  -10.4926  -16.3643   12.5014 N   0  0  0  0  0  0  0  0  0  0  0  0
  -11.2787  -17.2606   12.2993 O   0  0  0  0  0  0  0  0  0  0  0  0
  -10.7013  -18.2984   11.6778 C   0  0  0  0  0  0  0  0  0  0  0  0
   -9.4044  -17.9622   11.4882 C   0  0  0  0  0  0  0  0  0  0  0  0
  -11.3662  -19.5866   11.2665 C   0  0  0  0  0  0  0  0  0  0  0  0
  -12.4915  -19.2863   10.2750 C   0  0  0  0  0  0  0  0  0  0  0  0
  -10.3343  -20.5031   10.6041 C   0  0  0  0  0  0  0  0  0  0  0  0
  -11.9446  -20.2794   12.5010 C   0  0  0  0  0  0  0  0  0  0  0  0
  1  2  1  0
  1  9  1  0
  2  3  2  0
  2  4  1  0
  4  5  2  0
  4  8  1  0
  5  6  1  0
  6  7  1  0
  7  8  2  0
  9 10  2  0
  9 13  1  0
 10 11  1  0
 11 12  1  0
 12 13  2  0
 12 14  1  0
 14 15  1  0
 14 16  1  0
 14 17  1  0
M  END
>  <Gold.Gold.Protein.RotatedWaterAtoms>  (305) 


>  <Gold.Id.Protein>  (305) 


>  <Gold.PLP.Chemscore.CHOScore>  (305) 
0.0000

>  <Gold.PLP.Chemscore.Hbond>  (305) 
2.5347

>  <Gold.PLP.Chemscore.Internal.Correction>  (305) 
0.0031

>  <Gold.PLP.Chemscore.Metal>  (305) 
0.0000

>  <Gold.PLP.Fitness>  (305) 
47.4236

>  <Gold.PLP.PLP>  (305) 
-40.1606

>  <Gold.PLP.ligand.clash>  (305) 
0.0000

>  <Gold.PLP.ligand.torsion>  (305) 
0.1721

>  <Gold.PLP.part.buried>  (305) 
-7.9734

>  <Gold.PLP.part.hbond>  (305) 
-5.2121

>  <Gold.PLP.part.metal>  (305) 
0.0000

>  <Gold.PLP.part.nonpolar>  (305) 
-27.0720

>  <Gold.PLP.part.repulsive>  (305) 
0.5878

>  <Gold.Protein.RotatedAtoms>  (305) 


>  <Gold.Protein.RotatedTorsions>  (305) 


>  <Gold.Protein.RotatedWaterAtoms>  (305) 


>  <Gold.Version>  (305) 
5.3.0

>  <PLP.Chemscore.CHOScore>  (305) 


>  <PLP.Chemscore.Hbond>  (305) 


>  <PLP.Chemscore.Internal.Correction>  (305) 


>  <PLP.Chemscore.Metal>  (305) 


>  <PLP.Fitness>  (305) 


>  <PLP.PLP>  (305) 


>  <PLP.ligand.clash>  (305) 


>  <PLP.ligand.torsion>  (305) 


>  <PLP.part.buried>  (305) 


>  <PLP.part.hbond>  (305) 


>  <PLP.part.metal>  (305) 


>  <PLP.part.nonpolar>  (305) 


>  <PLP.part.repulsive>  (305) 


>  <Version>  (305) 


$$$$
3305|Compound_2051|Compounds_3D_F|sdf|592|dock2|1
     RDKit          3D

 17 18  0  0  0  0  0  0  0  0999 V2000
   -8.1855  -16.0094   12.0405 N   0  0  0  0  0  0  0  0  0  0  0  0
   -8.2887  -14.6682   12.1267 C   0  0  0  0  0  0  0  0  0  0  0  0
   -9.3853  -14.1425   12.1393 O   0  0  0  0  0  0  0  0  0  0  0  0
   -7.0727  -13.8405   12.2058 C   0  0  0  0  0  0  0  0  0  0  0  0
   -5.7876  -14.2979   12.2366 C   0  0  0  0  0  0  0  0  0  0  0  0
   -4.9847  -13.2102   12.3095 N   0  0  0  0  0  0  0  0  0  0  0  0
   -5.7808  -12.1096   12.3235 C   0  0  0  0  0  0  0  0  0  0  0  0
   -7.0255  -12.4851   12.2558 N   0  0  0  0  0  0  0  0  0  0  0  0
   -9.3353  -16.7937   11.9605 C   0  0  0  0  0  0  0  0  0  0  0  0
  -10.5055  -16.5266   12.4774 N   0  0  0  0  0  0  0  0  0  0  0  0
  -11.3053  -17.4012   12.2371 O   0  0  0  0  0  0  0  0  0  0  0  0
  -10.7607  -18.3879   11.5115 C   0  0  0  0  0  0  0  0  0  0  0  0
   -9.4704  -18.0420   11.2958 C   0  0  0  0  0  0  0  0  0  0  0  0
  -11.4505  -19.6368   11.0266 C   0  0  0  0  0  0  0  0  0  0  0  0
  -11.9958  -20.4165   12.2241 C   0  0  0  0  0  0  0  0  0  0  0  0
  -12.6064  -19.2525   10.0992 C   0  0  0  0  0  0  0  0  0  0  0  0
  -10.4522  -20.5073   10.2621 C   0  0  0  0  0  0  0  0  0  0  0  0
  1  2  1  0
  1  9  1  0
  2  3  2  0
  2  4  1  0
  4  5  2  0
  4  8  1  0
  5  6  1  0
  6  7  1  0
  7  8  2  0
  9 10  2  0
  9 13  1  0
 10 11  1  0
 11 12  1  0
 12 13  2  0
 12 14  1  0
 14 15  1  0
 14 16  1  0
 14 17  1  0
M  END
>  <Gold.Gold.Protein.RotatedWaterAtoms>  (306) 


>  <Gold.Id.Protein>  (306) 


>  <Gold.PLP.Chemscore.CHOScore>  (306) 
0.0000

>  <Gold.PLP.Chemscore.Hbond>  (306) 
2.3897

>  <Gold.PLP.Chemscore.Internal.Correction>  (306) 
0.0031

>  <Gold.PLP.Chemscore.Metal>  (306) 
0.0000

>  <Gold.PLP.Fitness>  (306) 
45.8948

>  <Gold.PLP.PLP>  (306) 
-39.1216

>  <Gold.PLP.ligand.clash>  (306) 
0.0000

>  <Gold.PLP.ligand.torsion>  (306) 
0.1995

>  <Gold.PLP.part.buried>  (306) 
-8.2784

>  <Gold.PLP.part.hbond>  (306) 
-5.7236

>  <Gold.PLP.part.metal>  (306) 
0.0000

>  <Gold.PLP.part.nonpolar>  (306) 
-26.0461

>  <Gold.PLP.part.repulsive>  (306) 
0.5743

>  <Gold.Protein.RotatedAtoms>  (306) 


>  <Gold.Protein.RotatedTorsions>  (306) 


>  <Gold.Protein.RotatedWaterAtoms>  (306) 


>  <Gold.Version>  (306) 
5.3.0

>  <PLP.Chemscore.CHOScore>  (306) 


>  <PLP.Chemscore.Hbond>  (306) 


>  <PLP.Chemscore.Internal.Correction>  (306) 


>  <PLP.Chemscore.Metal>  (306) 


>  <PLP.Fitness>  (306) 


>  <PLP.PLP>  (306) 


>  <PLP.ligand.clash>  (306) 


>  <PLP.ligand.torsion>  (306) 


>  <PLP.part.buried>  (306) 


>  <PLP.part.hbond>  (306) 


>  <PLP.part.metal>  (306) 


>  <PLP.part.nonpolar>  (306) 


>  <PLP.part.repulsive>  (306) 


>  <Version>  (306) 


$$$$
3306|Compound_2051|Compounds_3D_F|sdf|592|dock3|1
     RDKit          3D

 17 18  0  0  0  0  0  0  0  0999 V2000
   -8.4256  -15.0605   12.2613 N   0  0  0  0  0  0  0  0  0  0  0  0
   -8.7703  -13.8125   11.8861 C   0  0  0  0  0  0  0  0  0  0  0  0
   -9.8864  -13.5937   11.4555 O   0  0  0  0  0  0  0  0  0  0  0  0
   -7.7943  -12.7149   11.9982 C   0  0  0  0  0  0  0  0  0  0  0  0
   -6.5122  -12.8203   12.4530 C   0  0  0  0  0  0  0  0  0  0  0  0
   -5.9694  -11.5816   12.3896 N   0  0  0  0  0  0  0  0  0  0  0  0
   -6.9176  -10.7397   11.9022 C   0  0  0  0  0  0  0  0  0  0  0  0
   -8.0037  -11.4164   11.6634 N   0  0  0  0  0  0  0  0  0  0  0  0
   -9.3465  -16.1013   12.1510 C   0  0  0  0  0  0  0  0  0  0  0  0
  -10.5863  -16.0999   12.5644 N   0  0  0  0  0  0  0  0  0  0  0  0
  -11.1334  -17.1514   12.3256 O   0  0  0  0  0  0  0  0  0  0  0  0
  -10.3116  -18.0108   11.7070 C   0  0  0  0  0  0  0  0  0  0  0  0
   -9.1260  -17.3750   11.5617 C   0  0  0  0  0  0  0  0  0  0  0  0
  -10.6430  -19.4102   11.2570 C   0  0  0  0  0  0  0  0  0  0  0  0
  -11.1085  -20.2357   12.4576 C   0  0  0  0  0  0  0  0  0  0  0  0
  -11.7595  -19.3575   10.2109 C   0  0  0  0  0  0  0  0  0  0  0  0
   -9.4004  -20.0570   10.6435 C   0  0  0  0  0  0  0  0  0  0  0  0
  1  2  1  0
  1  9  1  0
  2  3  2  0
  2  4  1  0
  4  5  2  0
  4  8  1  0
  5  6  1  0
  6  7  1  0
  7  8  2  0
  9 10  2  0
  9 13  1  0
 10 11  1  0
 11 12  1  0
 12 13  2  0
 12 14  1  0
 14 15  1  0
 14 16  1  0
 14 17  1  0
M  END
>  <Gold.Gold.Protein.RotatedWaterAtoms>  (307) 


>  <Gold.Id.Protein>  (307) 


>  <Gold.PLP.Chemscore.CHOScore>  (307) 
0.0000

>  <Gold.PLP.Chemscore.Hbond>  (307) 
2.3245

>  <Gold.PLP.Chemscore.Internal.Correction>  (307) 
0.0018

>  <Gold.PLP.Chemscore.Metal>  (307) 
0.0000

>  <Gold.PLP.Fitness>  (307) 
47.3663

>  <Gold.PLP.PLP>  (307) 
-41.2718

>  <Gold.PLP.ligand.clash>  (307) 
0.0000

>  <Gold.PLP.ligand.torsion>  (307) 
0.4403

>  <Gold.PLP.part.buried>  (307) 
-5.0772

>  <Gold.PLP.part.hbond>  (307) 
-4.4661

>  <Gold.PLP.part.metal>  (307) 
0.0000

>  <Gold.PLP.part.nonpolar>  (307) 
-31.7716

>  <Gold.PLP.part.repulsive>  (307) 
0.6646

>  <Gold.Protein.RotatedAtoms>  (307) 


>  <Gold.Protein.RotatedTorsions>  (307) 


>  <Gold.Protein.RotatedWaterAtoms>  (307) 


>  <Gold.Version>  (307) 
5.3.0

>  <PLP.Chemscore.CHOScore>  (307) 


>  <PLP.Chemscore.Hbond>  (307) 


>  <PLP.Chemscore.Internal.Correction>  (307) 


>  <PLP.Chemscore.Metal>  (307) 


>  <PLP.Fitness>  (307) 


>  <PLP.PLP>  (307) 


>  <PLP.ligand.clash>  (307) 


>  <PLP.ligand.torsion>  (307) 


>  <PLP.part.buried>  (307) 


>  <PLP.part.hbond>  (307) 


>  <PLP.part.metal>  (307) 


>  <PLP.part.nonpolar>  (307) 


>  <PLP.part.repulsive>  (307) 


>  <Version>  (307) 


$$$$
3307|Compound_2057|Compounds_3D_F|sdf|593|dock1|1
     RDKit          3D

 18 20  0  0  0  0  0  0  0  0999 V2000
  -11.4077  -18.2988   12.2078 O   0  0  0  0  0  0  0  0  0  0  0  0
  -10.1875  -17.9241   11.7576 C   0  0  0  0  0  0  0  0  0  0  0  0
   -9.3379  -18.8540   11.1269 C   0  0  0  0  0  0  0  0  0  0  0  0
   -9.4403  -20.1603   10.8255 N   0  0  0  0  0  0  0  0  0  0  0  0
   -8.3701  -20.5636   10.2355 N   0  0  0  0  0  0  0  0  0  0  0  0
   -7.4720  -19.4917   10.1156 N   0  0  0  0  0  0  0  0  0  0  0  0
   -8.0821  -18.4058   10.6792 C   0  0  0  0  0  0  0  0  0  0  0  0
   -7.7429  -17.1342   10.8638 N   0  0  0  0  0  0  0  0  0  0  0  0
   -8.5729  -16.2965   11.4611 C   0  0  0  0  0  0  0  0  0  0  0  0
   -9.7692  -16.6740   11.8949 N   0  0  0  0  0  0  0  0  0  0  0  0
   -8.1832  -14.9759   11.6370 N   0  0  0  0  0  0  0  0  0  0  0  0
   -6.9372  -14.6914   12.0625 C   0  0  0  0  0  0  0  0  0  0  0  0
   -6.1534  -15.5921   12.2933 O   0  0  0  0  0  0  0  0  0  0  0  0
   -6.5241  -13.2904   12.2495 C   0  0  0  0  0  0  0  0  0  0  0  0
   -5.3511  -12.8609   12.7983 C   0  0  0  0  0  0  0  0  0  0  0  0
   -5.3794  -11.5077   12.7784 N   0  0  0  0  0  0  0  0  0  0  0  0
   -6.5588  -11.1269   12.2211 C   0  0  0  0  0  0  0  0  0  0  0  0
   -7.2392  -12.1905   11.9012 N   0  0  0  0  0  0  0  0  0  0  0  0
  1  2  1  0
  2  3  2  0
  2 10  1  0
  3  4  1  0
  3  7  1  0
  4  5  2  0
  5  6  1  0
  6  7  1  0
  7  8  2  0
  8  9  1  0
  9 10  2  0
  9 11  1  0
 11 12  1  0
 12 13  2  0
 12 14  1  0
 14 15  2  0
 14 18  1  0
 15 16  1  0
 16 17  1  0
 17 18  2  0
M  END
>  <Gold.Gold.Protein.RotatedWaterAtoms>  (308) 


>  <Gold.Id.Protein>  (308) 


>  <Gold.PLP.Chemscore.CHOScore>  (308) 
1.0000

>  <Gold.PLP.Chemscore.Hbond>  (308) 
2.8160

>  <Gold.PLP.Chemscore.Internal.Correction>  (308) 
0.3986

>  <Gold.PLP.Chemscore.Metal>  (308) 
0.0000

>  <Gold.PLP.Fitness>  (308) 
47.5819

>  <Gold.PLP.PLP>  (308) 
-36.5012

>  <Gold.PLP.ligand.clash>  (308) 
0.0000

>  <Gold.PLP.ligand.torsion>  (308) 
0.3829

>  <Gold.PLP.part.buried>  (308) 
-9.5367

>  <Gold.PLP.part.hbond>  (308) 
-3.2752

>  <Gold.PLP.part.metal>  (308) 
0.0000

>  <Gold.PLP.part.nonpolar>  (308) 
-24.3751

>  <Gold.PLP.part.repulsive>  (308) 
0.4187

>  <Gold.Protein.RotatedAtoms>  (308) 


>  <Gold.Protein.RotatedTorsions>  (308) 


>  <Gold.Protein.RotatedWaterAtoms>  (308) 


>  <Gold.Version>  (308) 
5.3.0

>  <PLP.Chemscore.CHOScore>  (308) 


>  <PLP.Chemscore.Hbond>  (308) 


>  <PLP.Chemscore.Internal.Correction>  (308) 


>  <PLP.Chemscore.Metal>  (308) 


>  <PLP.Fitness>  (308) 


>  <PLP.PLP>  (308) 


>  <PLP.ligand.clash>  (308) 


>  <PLP.ligand.torsion>  (308) 


>  <PLP.part.buried>  (308) 


>  <PLP.part.hbond>  (308) 


>  <PLP.part.metal>  (308) 


>  <PLP.part.nonpolar>  (308) 


>  <PLP.part.repulsive>  (308) 


>  <Version>  (308) 


$$$$
3308|Compound_2057|Compounds_3D_F|sdf|593|dock2|1
     RDKit          3D

 18 20  0  0  0  0  0  0  0  0999 V2000
  -11.6478  -18.3086   12.3126 O   0  0  0  0  0  0  0  0  0  0  0  0
  -10.4134  -17.9867   11.8602 C   0  0  0  0  0  0  0  0  0  0  0  0
   -9.6081  -18.9508   11.2227 C   0  0  0  0  0  0  0  0  0  0  0  0
   -9.7696  -20.2499   10.9160 N   0  0  0  0  0  0  0  0  0  0  0  0
   -8.7202  -20.6979   10.3210 N   0  0  0  0  0  0  0  0  0  0  0  0
   -7.7755  -19.6667   10.2029 N   0  0  0  0  0  0  0  0  0  0  0  0
   -8.3349  -18.5572   10.7732 C   0  0  0  0  0  0  0  0  0  0  0  0
   -7.9387  -17.3028   10.9622 N   0  0  0  0  0  0  0  0  0  0  0  0
   -8.7287  -16.4316   11.5658 C   0  0  0  0  0  0  0  0  0  0  0  0
   -9.9393  -16.7572   12.0016 N   0  0  0  0  0  0  0  0  0  0  0  0
   -8.2799  -15.1305   11.7461 N   0  0  0  0  0  0  0  0  0  0  0  0
   -7.0138  -14.9032   12.1462 C   0  0  0  0  0  0  0  0  0  0  0  0
   -6.2637  -15.8384   12.3500 O   0  0  0  0  0  0  0  0  0  0  0  0
   -6.5380  -13.5229   12.3380 C   0  0  0  0  0  0  0  0  0  0  0  0
   -5.3176  -13.1492   12.8202 C   0  0  0  0  0  0  0  0  0  0  0  0
   -5.2968  -11.7958   12.8327 N   0  0  0  0  0  0  0  0  0  0  0  0
   -6.4941  -11.3595   12.3608 C   0  0  0  0  0  0  0  0  0  0  0  0
   -7.2323  -12.3898   12.0611 N   0  0  0  0  0  0  0  0  0  0  0  0
  1  2  1  0
  2  3  2  0
  2 10  1  0
  3  4  1  0
  3  7  1  0
  4  5  2  0
  5  6  1  0
  6  7  1  0
  7  8  2  0
  8  9  1  0
  9 10  2  0
  9 11  1  0
 11 12  1  0
 12 13  2  0
 12 14  1  0
 14 15  2  0
 14 18  1  0
 15 16  1  0
 16 17  1  0
 17 18  2  0
M  END
>  <Gold.Gold.Protein.RotatedWaterAtoms>  (309) 


>  <Gold.Id.Protein>  (309) 


>  <Gold.PLP.Chemscore.CHOScore>  (309) 
1.0000

>  <Gold.PLP.Chemscore.Hbond>  (309) 
2.8275

>  <Gold.PLP.Chemscore.Internal.Correction>  (309) 
0.3986

>  <Gold.PLP.Chemscore.Metal>  (309) 
0.0000

>  <Gold.PLP.Fitness>  (309) 
47.5077

>  <Gold.PLP.PLP>  (309) 
-36.3338

>  <Gold.PLP.ligand.clash>  (309) 
0.0000

>  <Gold.PLP.ligand.torsion>  (309) 
0.3536

>  <Gold.PLP.part.buried>  (309) 
-9.5265

>  <Gold.PLP.part.hbond>  (309) 
-3.5949

>  <Gold.PLP.part.metal>  (309) 
0.0000

>  <Gold.PLP.part.nonpolar>  (309) 
-24.4799

>  <Gold.PLP.part.repulsive>  (309) 
0.4077

>  <Gold.Protein.RotatedAtoms>  (309) 


>  <Gold.Protein.RotatedTorsions>  (309) 


>  <Gold.Protein.RotatedWaterAtoms>  (309) 


>  <Gold.Version>  (309) 
5.3.0

>  <PLP.Chemscore.CHOScore>  (309) 


>  <PLP.Chemscore.Hbond>  (309) 


>  <PLP.Chemscore.Internal.Correction>  (309) 


>  <PLP.Chemscore.Metal>  (309) 


>  <PLP.Fitness>  (309) 


>  <PLP.PLP>  (309) 


>  <PLP.ligand.clash>  (309) 


>  <PLP.ligand.torsion>  (309) 


>  <PLP.part.buried>  (309) 


>  <PLP.part.hbond>  (309) 


>  <PLP.part.metal>  (309) 


>  <PLP.part.nonpolar>  (309) 


>  <PLP.part.repulsive>  (309) 


>  <Version>  (309) 


$$$$
3309|Compound_2057|Compounds_3D_F|sdf|593|dock3|1
     RDKit          3D

 18 20  0  0  0  0  0  0  0  0999 V2000
  -11.7739  -18.0527   12.2558 O   0  0  0  0  0  0  0  0  0  0  0  0
  -10.5078  -17.7689   11.8706 C   0  0  0  0  0  0  0  0  0  0  0  0
   -9.6931  -18.7622   11.2925 C   0  0  0  0  0  0  0  0  0  0  0  0
   -9.8711  -20.0610   10.9937 N   0  0  0  0  0  0  0  0  0  0  0  0
   -8.8017  -20.5440   10.4654 N   0  0  0  0  0  0  0  0  0  0  0  0
   -7.8251  -19.5390   10.3883 N   0  0  0  0  0  0  0  0  0  0  0  0
   -8.3866  -18.4076   10.9114 C   0  0  0  0  0  0  0  0  0  0  0  0
   -7.9690  -17.1611   11.1067 N   0  0  0  0  0  0  0  0  0  0  0  0
   -8.7689  -16.2615   11.6530 C   0  0  0  0  0  0  0  0  0  0  0  0
  -10.0104  -16.5500   12.0231 N   0  0  0  0  0  0  0  0  0  0  0  0
   -8.2970  -14.9699   11.8420 N   0  0  0  0  0  0  0  0  0  0  0  0
   -6.9933  -14.7604   12.1089 C   0  0  0  0  0  0  0  0  0  0  0  0
   -6.2294  -15.7035   12.1849 O   0  0  0  0  0  0  0  0  0  0  0  0
   -6.4931  -13.3901   12.3100 C   0  0  0  0  0  0  0  0  0  0  0  0
   -5.2464  -13.0408   12.7405 C   0  0  0  0  0  0  0  0  0  0  0  0
   -5.2096  -11.6884   12.7843 N   0  0  0  0  0  0  0  0  0  0  0  0
   -6.4234  -11.2285   12.3821 C   0  0  0  0  0  0  0  0  0  0  0  0
   -7.1870  -12.2436   12.0945 N   0  0  0  0  0  0  0  0  0  0  0  0
  1  2  1  0
  2  3  2  0
  2 10  1  0
  3  4  1  0
  3  7  1  0
  4  5  2  0
  5  6  1  0
  6  7  1  0
  7  8  2  0
  8  9  1  0
  9 10  2  0
  9 11  1  0
 11 12  1  0
 12 13  2  0
 12 14  1  0
 14 15  2  0
 14 18  1  0
 15 16  1  0
 16 17  1  0
 17 18  2  0
M  END
>  <Gold.Gold.Protein.RotatedWaterAtoms>  (310) 


>  <Gold.Id.Protein>  (310) 


>  <Gold.PLP.Chemscore.CHOScore>  (310) 
1.0000

>  <Gold.PLP.Chemscore.Hbond>  (310) 
2.6300

>  <Gold.PLP.Chemscore.Internal.Correction>  (310) 
0.3986

>  <Gold.PLP.Chemscore.Metal>  (310) 
0.0000

>  <Gold.PLP.Fitness>  (310) 
47.2477

>  <Gold.PLP.PLP>  (310) 
-36.4533

>  <Gold.PLP.ligand.clash>  (310) 
0.0000

>  <Gold.PLP.ligand.torsion>  (310) 
0.2471

>  <Gold.PLP.part.buried>  (310) 
-8.4757

>  <Gold.PLP.part.hbond>  (310) 
-3.9501

>  <Gold.PLP.part.metal>  (310) 
0.0000

>  <Gold.PLP.part.nonpolar>  (310) 
-24.7232

>  <Gold.PLP.part.repulsive>  (310) 
0.4244

>  <Gold.Protein.RotatedAtoms>  (310) 


>  <Gold.Protein.RotatedTorsions>  (310) 


>  <Gold.Protein.RotatedWaterAtoms>  (310) 


>  <Gold.Version>  (310) 
5.3.0

>  <PLP.Chemscore.CHOScore>  (310) 


>  <PLP.Chemscore.Hbond>  (310) 


>  <PLP.Chemscore.Internal.Correction>  (310) 


>  <PLP.Chemscore.Metal>  (310) 


>  <PLP.Fitness>  (310) 


>  <PLP.PLP>  (310) 


>  <PLP.ligand.clash>  (310) 


>  <PLP.ligand.torsion>  (310) 


>  <PLP.part.buried>  (310) 


>  <PLP.part.hbond>  (310) 


>  <PLP.part.metal>  (310) 


>  <PLP.part.nonpolar>  (310) 


>  <PLP.part.repulsive>  (310) 


>  <Version>  (310) 


$$$$
3310|Compound_2058|Compounds_3D_F|sdf|594|dock1|1
     RDKit          3D

 31 35  0  0  0  0  0  0  0  0999 V2000
   -9.5535  -16.3598   11.9026 N   0  0  0  0  0  0  0  0  0  0  0  0
   -9.0107  -15.4679   11.0502 C   0  0  0  0  0  0  0  0  0  0  0  0
   -9.3422  -15.4668    9.8798 O   0  0  0  0  0  0  0  0  0  0  0  0
   -8.0162  -14.4948   11.5359 C   0  0  0  0  0  0  0  0  0  0  0  0
   -6.6758  -14.8865   11.7324 C   0  0  0  0  0  0  0  0  0  0  0  0
   -6.0140  -16.0499   11.5695 N   0  0  0  0  0  0  0  0  0  0  0  0
   -4.7616  -15.8934   11.8936 C   0  0  0  0  0  0  0  0  0  0  0  0
   -4.5394  -14.6127   12.2881 N   0  0  0  0  0  0  0  0  0  0  0  0
   -5.7439  -13.9428   12.1959 C   0  0  0  0  0  0  0  0  0  0  0  0
   -6.1456  -12.6411   12.4553 C   0  0  0  0  0  0  0  0  0  0  0  0
   -7.4603  -12.2673   12.2580 C   0  0  0  0  0  0  0  0  0  0  0  0
   -8.3908  -13.1796   11.7983 C   0  0  0  0  0  0  0  0  0  0  0  0
  -10.4824  -17.2777   11.4453 C   0  0  0  0  0  0  0  0  0  0  0  0
  -11.2559  -18.0083   12.2074 N   0  0  0  0  0  0  0  0  0  0  0  0
  -12.0462  -18.7988   11.4330 C   0  0  0  0  0  0  0  0  0  0  0  0
  -11.7208  -18.5226   10.0952 C   0  0  0  0  0  0  0  0  0  0  0  0
  -10.7328  -17.5523   10.1310 N   0  0  0  0  0  0  0  0  0  0  0  0
  -12.3750  -19.1900    9.0700 C   0  0  0  0  0  0  0  0  0  0  0  0
  -13.3468  -20.1272    9.3706 C   0  0  0  0  0  0  0  0  0  0  0  0
  -13.9879  -20.7822    8.3654 O   0  0  0  0  0  0  0  0  0  0  0  0
  -13.5785  -22.0422    8.0624 C   0  0  0  0  0  0  0  0  0  0  0  0
  -14.5126  -23.0562    7.8978 C   0  0  0  0  0  0  0  0  0  0  0  0
  -16.2054  -22.7158    8.0782 Cl  0  0  0  0  0  0  0  0  0  0  0  0
  -14.0923  -24.3377    7.5899 C   0  0  0  0  0  0  0  0  0  0  0  0
  -15.2581  -25.6071    7.3842 Cl  0  0  0  0  0  0  0  0  0  0  0  0
  -12.7426  -24.6084    7.4453 C   0  0  0  0  0  0  0  0  0  0  0  0
  -11.8117  -23.5989    7.6085 C   0  0  0  0  0  0  0  0  0  0  0  0
  -12.2264  -22.3170    7.9114 C   0  0  0  0  0  0  0  0  0  0  0  0
  -13.6720  -20.4040   10.6962 C   0  0  0  0  0  0  0  0  0  0  0  0
  -14.8932  -21.5826   11.0569 Cl  0  0  0  0  0  0  0  0  0  0  0  0
  -13.0289  -19.7483   11.7225 C   0  0  0  0  0  0  0  0  0  0  0  0
  1  2  1  0
  1 13  1  0
  2  3  2  0
  2  4  1  0
  4  5  2  0
  4 12  1  0
  5  6  1  0
  5  9  1  0
  6  7  2  0
  7  8  1  0
  8  9  1  0
  9 10  2  0
 10 11  1  0
 11 12  2  0
 13 14  2  0
 13 17  1  0
 14 15  1  0
 15 16  2  0
 15 31  1  0
 16 17  1  0
 16 18  1  0
 18 19  2  0
 19 20  1  0
 19 29  1  0
 20 21  1  0
 21 22  2  0
 21 28  1  0
 22 23  1  0
 22 24  1  0
 24 25  1  0
 24 26  2  0
 26 27  1  0
 27 28  2  0
 29 30  1  0
 29 31  2  0
M  END
>  <Gold.Gold.Protein.RotatedWaterAtoms>  (311) 


>  <Gold.Id.Protein>  (311) 


>  <Gold.PLP.Chemscore.CHOScore>  (311) 
0.0000

>  <Gold.PLP.Chemscore.Hbond>  (311) 
2.0406

>  <Gold.PLP.Chemscore.Internal.Correction>  (311) 
0.0835

>  <Gold.PLP.Chemscore.Metal>  (311) 
0.0000

>  <Gold.PLP.Fitness>  (311) 
67.6361

>  <Gold.PLP.PLP>  (311) 
-65.2507

>  <Gold.PLP.ligand.clash>  (311) 
0.0000

>  <Gold.PLP.ligand.torsion>  (311) 
1.9099

>  <Gold.PLP.part.buried>  (311) 
-3.5507

>  <Gold.PLP.part.hbond>  (311) 
-6.6775

>  <Gold.PLP.part.metal>  (311) 
0.0000

>  <Gold.PLP.part.nonpolar>  (311) 
-56.6948

>  <Gold.PLP.part.repulsive>  (311) 
1.3176

>  <Gold.Protein.RotatedAtoms>  (311) 


>  <Gold.Protein.RotatedTorsions>  (311) 


>  <Gold.Protein.RotatedWaterAtoms>  (311) 


>  <Gold.Version>  (311) 
5.3.0

>  <PLP.Chemscore.CHOScore>  (311) 


>  <PLP.Chemscore.Hbond>  (311) 


>  <PLP.Chemscore.Internal.Correction>  (311) 


>  <PLP.Chemscore.Metal>  (311) 


>  <PLP.Fitness>  (311) 


>  <PLP.PLP>  (311) 


>  <PLP.ligand.clash>  (311) 


>  <PLP.ligand.torsion>  (311) 


>  <PLP.part.buried>  (311) 


>  <PLP.part.hbond>  (311) 


>  <PLP.part.metal>  (311) 


>  <PLP.part.nonpolar>  (311) 


>  <PLP.part.repulsive>  (311) 


>  <Version>  (311) 


$$$$
3311|Compound_2058|Compounds_3D_F|sdf|594|dock2|1
     RDKit          3D

 31 35  0  0  0  0  0  0  0  0999 V2000
   -8.1172  -15.5164   11.2602 N   0  0  0  0  0  0  0  0  0  0  0  0
   -8.7462  -14.4538   11.8004 C   0  0  0  0  0  0  0  0  0  0  0  0
   -9.8908  -14.5629   12.1978 O   0  0  0  0  0  0  0  0  0  0  0  0
   -8.0479  -13.1606   11.9094 C   0  0  0  0  0  0  0  0  0  0  0  0
   -6.7251  -13.1062   12.3954 C   0  0  0  0  0  0  0  0  0  0  0  0
   -5.8551  -14.0404   12.8291 N   0  0  0  0  0  0  0  0  0  0  0  0
   -4.7361  -13.4716   13.1793 C   0  0  0  0  0  0  0  0  0  0  0  0
   -4.8182  -12.1286   12.9920 N   0  0  0  0  0  0  0  0  0  0  0  0
   -6.0777  -11.8630   12.4911 C   0  0  0  0  0  0  0  0  0  0  0  0
   -6.7393  -10.7054   12.1096 C   0  0  0  0  0  0  0  0  0  0  0  0
   -8.0340  -10.7698   11.6333 C   0  0  0  0  0  0  0  0  0  0  0  0
   -8.6861  -11.9835   11.5274 C   0  0  0  0  0  0  0  0  0  0  0  0
   -8.7750  -16.7289   11.1519 C   0  0  0  0  0  0  0  0  0  0  0  0
   -8.2916  -17.7974   10.5711 N   0  0  0  0  0  0  0  0  0  0  0  0
   -9.1981  -18.8083   10.6458 C   0  0  0  0  0  0  0  0  0  0  0  0
  -10.3196  -18.3068   11.3258 C   0  0  0  0  0  0  0  0  0  0  0  0
  -10.0234  -16.9906   11.6402 N   0  0  0  0  0  0  0  0  0  0  0  0
  -11.4173  -19.1245   11.5513 C   0  0  0  0  0  0  0  0  0  0  0  0
  -11.4027  -20.4332   11.1036 C   0  0  0  0  0  0  0  0  0  0  0  0
  -12.4793  -21.2349   11.3240 O   0  0  0  0  0  0  0  0  0  0  0  0
  -13.3359  -21.4504   10.2911 C   0  0  0  0  0  0  0  0  0  0  0  0
  -13.6186  -22.7464    9.8808 C   0  0  0  0  0  0  0  0  0  0  0  0
  -12.8784  -24.0939   10.6872 Cl  0  0  0  0  0  0  0  0  0  0  0  0
  -14.4906  -22.9620    8.8289 C   0  0  0  0  0  0  0  0  0  0  0  0
  -14.8450  -24.5812    8.3138 Cl  0  0  0  0  0  0  0  0  0  0  0  0
  -15.0811  -21.8873    8.1869 C   0  0  0  0  0  0  0  0  0  0  0  0
  -14.8006  -20.5963    8.5953 C   0  0  0  0  0  0  0  0  0  0  0  0
  -13.9343  -20.3759    9.6479 C   0  0  0  0  0  0  0  0  0  0  0  0
  -10.2923  -20.9340   10.4284 C   0  0  0  0  0  0  0  0  0  0  0  0
  -10.2893  -22.5777    9.8729 Cl  0  0  0  0  0  0  0  0  0  0  0  0
   -9.1969  -20.1315   10.1982 C   0  0  0  0  0  0  0  0  0  0  0  0
  1  2  1  0
  1 13  1  0
  2  3  2  0
  2  4  1  0
  4  5  2  0
  4 12  1  0
  5  6  1  0
  5  9  1  0
  6  7  2  0
  7  8  1  0
  8  9  1  0
  9 10  2  0
 10 11  1  0
 11 12  2  0
 13 14  2  0
 13 17  1  0
 14 15  1  0
 15 16  2  0
 15 31  1  0
 16 17  1  0
 16 18  1  0
 18 19  2  0
 19 20  1  0
 19 29  1  0
 20 21  1  0
 21 22  2  0
 21 28  1  0
 22 23  1  0
 22 24  1  0
 24 25  1  0
 24 26  2  0
 26 27  1  0
 27 28  2  0
 29 30  1  0
 29 31  2  0
M  END
>  <Gold.Gold.Protein.RotatedWaterAtoms>  (312) 


>  <Gold.Id.Protein>  (312) 


>  <Gold.PLP.Chemscore.CHOScore>  (312) 
0.7521

>  <Gold.PLP.Chemscore.Hbond>  (312) 
1.8560

>  <Gold.PLP.Chemscore.Internal.Correction>  (312) 
0.0753

>  <Gold.PLP.Chemscore.Metal>  (312) 
0.0000

>  <Gold.PLP.Fitness>  (312) 
72.4775

>  <Gold.PLP.PLP>  (312) 
-66.8963

>  <Gold.PLP.ligand.clash>  (312) 
0.2227

>  <Gold.PLP.ligand.torsion>  (312) 
1.0478

>  <Gold.PLP.part.buried>  (312) 
-7.5568

>  <Gold.PLP.part.hbond>  (312) 
-4.0218

>  <Gold.PLP.part.metal>  (312) 
0.0000

>  <Gold.PLP.part.nonpolar>  (312) 
-56.6216

>  <Gold.PLP.part.repulsive>  (312) 
0.6028

>  <Gold.Protein.RotatedAtoms>  (312) 


>  <Gold.Protein.RotatedTorsions>  (312) 


>  <Gold.Protein.RotatedWaterAtoms>  (312) 


>  <Gold.Version>  (312) 
5.3.0

>  <PLP.Chemscore.CHOScore>  (312) 


>  <PLP.Chemscore.Hbond>  (312) 


>  <PLP.Chemscore.Internal.Correction>  (312) 


>  <PLP.Chemscore.Metal>  (312) 


>  <PLP.Fitness>  (312) 


>  <PLP.PLP>  (312) 


>  <PLP.ligand.clash>  (312) 


>  <PLP.ligand.torsion>  (312) 


>  <PLP.part.buried>  (312) 


>  <PLP.part.hbond>  (312) 


>  <PLP.part.metal>  (312) 


>  <PLP.part.nonpolar>  (312) 


>  <PLP.part.repulsive>  (312) 


>  <Version>  (312) 


$$$$
3312|Compound_2058|Compounds_3D_F|sdf|594|dock3|1
     RDKit          3D

 31 35  0  0  0  0  0  0  0  0999 V2000
   -9.9076  -16.3016   12.0404 N   0  0  0  0  0  0  0  0  0  0  0  0
   -9.0020  -15.8114   11.1708 C   0  0  0  0  0  0  0  0  0  0  0  0
   -8.9479  -16.2511   10.0378 O   0  0  0  0  0  0  0  0  0  0  0  0
   -8.0782  -14.7433   11.5922 C   0  0  0  0  0  0  0  0  0  0  0  0
   -6.7108  -15.0246   11.7922 C   0  0  0  0  0  0  0  0  0  0  0  0
   -5.9662  -16.1432   11.6823 N   0  0  0  0  0  0  0  0  0  0  0  0
   -4.7260  -15.8782   11.9821 C   0  0  0  0  0  0  0  0  0  0  0  0
   -4.5957  -14.5654   12.3060 N   0  0  0  0  0  0  0  0  0  0  0  0
   -5.8472  -13.9917   12.1937 C   0  0  0  0  0  0  0  0  0  0  0  0
   -6.3419  -12.7109   12.3894 C   0  0  0  0  0  0  0  0  0  0  0  0
   -7.6823  -12.4457   12.1891 C   0  0  0  0  0  0  0  0  0  0  0  0
   -8.5467  -13.4471   11.7897 C   0  0  0  0  0  0  0  0  0  0  0  0
  -10.7707  -17.3089   11.6467 C   0  0  0  0  0  0  0  0  0  0  0  0
  -11.2995  -18.2009   12.4452 N   0  0  0  0  0  0  0  0  0  0  0  0
  -12.0981  -19.0381   11.7307 C   0  0  0  0  0  0  0  0  0  0  0  0
  -12.0445  -18.6165   10.3924 C   0  0  0  0  0  0  0  0  0  0  0  0
  -11.2024  -17.5170   10.3677 N   0  0  0  0  0  0  0  0  0  0  0  0
  -12.7692  -19.2933    9.4222 C   0  0  0  0  0  0  0  0  0  0  0  0
  -13.5429  -20.3833    9.7780 C   0  0  0  0  0  0  0  0  0  0  0  0
  -14.2530  -21.0475    8.8267 O   0  0  0  0  0  0  0  0  0  0  0  0
  -13.7364  -22.2055    8.3377 C   0  0  0  0  0  0  0  0  0  0  0  0
  -14.5788  -23.2601    8.0123 C   0  0  0  0  0  0  0  0  0  0  0  0
  -16.2939  -23.1009    8.2292 Cl  0  0  0  0  0  0  0  0  0  0  0  0
  -14.0494  -24.4376    7.5153 C   0  0  0  0  0  0  0  0  0  0  0  0
  -15.1005  -25.7575    7.1084 Cl  0  0  0  0  0  0  0  0  0  0  0  0
  -12.6820  -24.5637    7.3418 C   0  0  0  0  0  0  0  0  0  0  0  0
  -11.8424  -23.5136    7.6650 C   0  0  0  0  0  0  0  0  0  0  0  0
  -12.3662  -22.3345    8.1572 C   0  0  0  0  0  0  0  0  0  0  0  0
  -13.5981  -20.8046   11.1044 C   0  0  0  0  0  0  0  0  0  0  0  0
  -14.5730  -22.1739   11.5347 Cl  0  0  0  0  0  0  0  0  0  0  0  0
  -12.8826  -20.1411   12.0762 C   0  0  0  0  0  0  0  0  0  0  0  0
  1  2  1  0
  1 13  1  0
  2  3  2  0
  2  4  1  0
  4  5  2  0
  4 12  1  0
  5  6  1  0
  5  9  1  0
  6  7  2  0
  7  8  1  0
  8  9  1  0
  9 10  2  0
 10 11  1  0
 11 12  2  0
 13 14  2  0
 13 17  1  0
 14 15  1  0
 15 16  2  0
 15 31  1  0
 16 17  1  0
 16 18  1  0
 18 19  2  0
 19 20  1  0
 19 29  1  0
 20 21  1  0
 21 22  2  0
 21 28  1  0
 22 23  1  0
 22 24  1  0
 24 25  1  0
 24 26  2  0
 26 27  1  0
 27 28  2  0
 29 30  1  0
 29 31  2  0
M  END
>  <Gold.Gold.Protein.RotatedWaterAtoms>  (313) 


>  <Gold.Id.Protein>  (313) 


>  <Gold.PLP.Chemscore.CHOScore>  (313) 
0.0000

>  <Gold.PLP.Chemscore.Hbond>  (313) 
2.0000

>  <Gold.PLP.Chemscore.Internal.Correction>  (313) 
0.0603

>  <Gold.PLP.Chemscore.Metal>  (313) 
0.0000

>  <Gold.PLP.Fitness>  (313) 
66.9344

>  <Gold.PLP.PLP>  (313) 
-65.1496

>  <Gold.PLP.ligand.clash>  (313) 
0.0000

>  <Gold.PLP.ligand.torsion>  (313) 
2.1377

>  <Gold.PLP.part.buried>  (313) 
-4.6596

>  <Gold.PLP.part.hbond>  (313) 
-5.0536

>  <Gold.PLP.part.metal>  (313) 
0.0000

>  <Gold.PLP.part.nonpolar>  (313) 
-55.6090

>  <Gold.PLP.part.repulsive>  (313) 
0.6316

>  <Gold.Protein.RotatedAtoms>  (313) 


>  <Gold.Protein.RotatedTorsions>  (313) 


>  <Gold.Protein.RotatedWaterAtoms>  (313) 


>  <Gold.Version>  (313) 
5.3.0

>  <PLP.Chemscore.CHOScore>  (313) 


>  <PLP.Chemscore.Hbond>  (313) 


>  <PLP.Chemscore.Internal.Correction>  (313) 


>  <PLP.Chemscore.Metal>  (313) 


>  <PLP.Fitness>  (313) 


>  <PLP.PLP>  (313) 


>  <PLP.ligand.clash>  (313) 


>  <PLP.ligand.torsion>  (313) 


>  <PLP.part.buried>  (313) 


>  <PLP.part.hbond>  (313) 


>  <PLP.part.metal>  (313) 


>  <PLP.part.nonpolar>  (313) 


>  <PLP.part.repulsive>  (313) 


>  <Version>  (313) 


$$$$
3313|Compound_2058|Compounds_3D_F|sdf|594|dock4|1
     RDKit          3D

 31 35  0  0  0  0  0  0  0  0999 V2000
   -9.7566  -16.4179   12.0288 N   0  0  0  0  0  0  0  0  0  0  0  0
   -8.7979  -15.9938   11.1817 C   0  0  0  0  0  0  0  0  0  0  0  0
   -8.7516  -16.4322   10.0480 O   0  0  0  0  0  0  0  0  0  0  0  0
   -7.8064  -14.9994   11.6289 C   0  0  0  0  0  0  0  0  0  0  0  0
   -6.4495  -15.3595   11.7629 C   0  0  0  0  0  0  0  0  0  0  0  0
   -5.7679  -16.5056   11.5633 N   0  0  0  0  0  0  0  0  0  0  0  0
   -4.5064  -16.3206   11.8324 C   0  0  0  0  0  0  0  0  0  0  0  0
   -4.2975  -15.0369   12.2247 N   0  0  0  0  0  0  0  0  0  0  0  0
   -5.5206  -14.3960   12.1904 C   0  0  0  0  0  0  0  0  0  0  0  0
   -5.9415  -13.1058   12.4758 C   0  0  0  0  0  0  0  0  0  0  0  0
   -7.2722  -12.7628   12.3395 C   0  0  0  0  0  0  0  0  0  0  0  0
   -8.2003  -13.6950   11.9159 C   0  0  0  0  0  0  0  0  0  0  0  0
  -10.6837  -17.3563   11.6110 C   0  0  0  0  0  0  0  0  0  0  0  0
  -11.3664  -18.1433   12.4031 N   0  0  0  0  0  0  0  0  0  0  0  0
  -12.1853  -18.9380   11.6635 C   0  0  0  0  0  0  0  0  0  0  0  0
  -11.9775  -18.6031   10.3158 C   0  0  0  0  0  0  0  0  0  0  0  0
  -11.0269  -17.5955   10.3108 N   0  0  0  0  0  0  0  0  0  0  0  0
  -12.6852  -19.2607    9.3203 C   0  0  0  0  0  0  0  0  0  0  0  0
  -13.5944  -20.2462    9.6602 C   0  0  0  0  0  0  0  0  0  0  0  0
  -14.2880  -20.8916    8.6842 O   0  0  0  0  0  0  0  0  0  0  0  0
  -13.7662  -22.0437    8.1865 C   0  0  0  0  0  0  0  0  0  0  0  0
  -14.5947  -23.1271    7.9266 C   0  0  0  0  0  0  0  0  0  0  0  0
  -16.2990  -23.0116    8.2365 Cl  0  0  0  0  0  0  0  0  0  0  0  0
  -14.0601  -24.2983    7.4205 C   0  0  0  0  0  0  0  0  0  0  0  0
  -15.0938  -25.6542    7.0954 Cl  0  0  0  0  0  0  0  0  0  0  0  0
  -12.7014  -24.3895    7.1727 C   0  0  0  0  0  0  0  0  0  0  0  0
  -11.8756  -23.3107    7.4307 C   0  0  0  0  0  0  0  0  0  0  0  0
  -12.4051  -22.1378    7.9317 C   0  0  0  0  0  0  0  0  0  0  0  0
  -13.8029  -20.5813   10.9959 C   0  0  0  0  0  0  0  0  0  0  0  0
  -14.9466  -21.8200   11.4061 Cl  0  0  0  0  0  0  0  0  0  0  0  0
  -13.1057  -19.9359   11.9928 C   0  0  0  0  0  0  0  0  0  0  0  0
  1  2  1  0
  1 13  1  0
  2  3  2  0
  2  4  1  0
  4  5  2  0
  4 12  1  0
  5  6  1  0
  5  9  1  0
  6  7  2  0
  7  8  1  0
  8  9  1  0
  9 10  2  0
 10 11  1  0
 11 12  2  0
 13 14  2  0
 13 17  1  0
 14 15  1  0
 15 16  2  0
 15 31  1  0
 16 17  1  0
 16 18  1  0
 18 19  2  0
 19 20  1  0
 19 29  1  0
 20 21  1  0
 21 22  2  0
 21 28  1  0
 22 23  1  0
 22 24  1  0
 24 25  1  0
 24 26  2  0
 26 27  1  0
 27 28  2  0
 29 30  1  0
 29 31  2  0
M  END
>  <Gold.Gold.Protein.RotatedWaterAtoms>  (314) 


>  <Gold.Id.Protein>  (314) 


>  <Gold.PLP.Chemscore.CHOScore>  (314) 
0.0000

>  <Gold.PLP.Chemscore.Hbond>  (314) 
2.0000

>  <Gold.PLP.Chemscore.Internal.Correction>  (314) 
0.0603

>  <Gold.PLP.Chemscore.Metal>  (314) 
0.0000

>  <Gold.PLP.Fitness>  (314) 
67.3902

>  <Gold.PLP.PLP>  (314) 
-65.3579

>  <Gold.PLP.ligand.clash>  (314) 
0.0000

>  <Gold.PLP.ligand.torsion>  (314) 
2.0139

>  <Gold.PLP.part.buried>  (314) 
-6.2297

>  <Gold.PLP.part.hbond>  (314) 
-5.0572

>  <Gold.PLP.part.metal>  (314) 
0.0000

>  <Gold.PLP.part.nonpolar>  (314) 
-54.2279

>  <Gold.PLP.part.repulsive>  (314) 
0.6199

>  <Gold.Protein.RotatedAtoms>  (314) 


>  <Gold.Protein.RotatedTorsions>  (314) 


>  <Gold.Protein.RotatedWaterAtoms>  (314) 


>  <Gold.Version>  (314) 
5.3.0

>  <PLP.Chemscore.CHOScore>  (314) 


>  <PLP.Chemscore.Hbond>  (314) 


>  <PLP.Chemscore.Internal.Correction>  (314) 


>  <PLP.Chemscore.Metal>  (314) 


>  <PLP.Fitness>  (314) 


>  <PLP.PLP>  (314) 


>  <PLP.ligand.clash>  (314) 


>  <PLP.ligand.torsion>  (314) 


>  <PLP.part.buried>  (314) 


>  <PLP.part.hbond>  (314) 


>  <PLP.part.metal>  (314) 


>  <PLP.part.nonpolar>  (314) 


>  <PLP.part.repulsive>  (314) 


>  <Version>  (314) 


$$$$
3314|Compound_2058|Compounds_3D_F|sdf|594|dock5|1
     RDKit          3D

 31 35  0  0  0  0  0  0  0  0999 V2000
   -9.4576  -15.0699   12.3593 N   0  0  0  0  0  0  0  0  0  0  0  0
   -8.7865  -14.4326   11.3794 C   0  0  0  0  0  0  0  0  0  0  0  0
   -8.7330  -14.9177   10.2651 O   0  0  0  0  0  0  0  0  0  0  0  0
   -8.1181  -13.1490   11.6578 C   0  0  0  0  0  0  0  0  0  0  0  0
   -6.8343  -13.1282   12.2411 C   0  0  0  0  0  0  0  0  0  0  0  0
   -5.9828  -14.0909   12.6485 N   0  0  0  0  0  0  0  0  0  0  0  0
   -4.9007  -13.5472   13.1297 C   0  0  0  0  0  0  0  0  0  0  0  0
   -4.9903  -12.1933   13.0620 N   0  0  0  0  0  0  0  0  0  0  0  0
   -6.2150  -11.8935   12.4979 C   0  0  0  0  0  0  0  0  0  0  0  0
   -6.8659  -10.7114   12.1782 C   0  0  0  0  0  0  0  0  0  0  0  0
   -8.1222  -10.7429   11.6056 C   0  0  0  0  0  0  0  0  0  0  0  0
   -8.7460  -11.9473   11.3410 C   0  0  0  0  0  0  0  0  0  0  0  0
  -10.0797  -16.2783   12.0996 C   0  0  0  0  0  0  0  0  0  0  0  0
  -11.1386  -16.7282   12.7233 N   0  0  0  0  0  0  0  0  0  0  0  0
  -11.4855  -17.9422   12.2183 C   0  0  0  0  0  0  0  0  0  0  0  0
  -10.5586  -18.2489   11.2090 C   0  0  0  0  0  0  0  0  0  0  0  0
   -9.6835  -17.1767   11.1502 N   0  0  0  0  0  0  0  0  0  0  0  0
  -10.6640  -19.4422   10.5095 C   0  0  0  0  0  0  0  0  0  0  0  0
  -11.6836  -20.3272   10.8102 C   0  0  0  0  0  0  0  0  0  0  0  0
  -11.7866  -21.4977   10.1249 O   0  0  0  0  0  0  0  0  0  0  0  0
  -12.8977  -21.6980    9.3683 C   0  0  0  0  0  0  0  0  0  0  0  0
  -13.5691  -22.9119    9.4264 C   0  0  0  0  0  0  0  0  0  0  0  0
  -12.9905  -24.1759   10.4663 Cl  0  0  0  0  0  0  0  0  0  0  0  0
  -14.6995  -23.1124    8.6545 C   0  0  0  0  0  0  0  0  0  0  0  0
  -15.5401  -24.6293    8.7251 Cl  0  0  0  0  0  0  0  0  0  0  0  0
  -15.1608  -22.1040    7.8262 C   0  0  0  0  0  0  0  0  0  0  0  0
  -14.4930  -20.8945    7.7682 C   0  0  0  0  0  0  0  0  0  0  0  0
  -13.3668  -20.6877    8.5402 C   0  0  0  0  0  0  0  0  0  0  0  0
  -12.6045  -20.0266   11.8108 C   0  0  0  0  0  0  0  0  0  0  0  0
  -13.8777  -21.1473   12.1765 Cl  0  0  0  0  0  0  0  0  0  0  0  0
  -12.5097  -18.8454   12.5125 C   0  0  0  0  0  0  0  0  0  0  0  0
  1  2  1  0
  1 13  1  0
  2  3  2  0
  2  4  1  0
  4  5  2  0
  4 12  1  0
  5  6  1  0
  5  9  1  0
  6  7  2  0
  7  8  1  0
  8  9  1  0
  9 10  2  0
 10 11  1  0
 11 12  2  0
 13 14  2  0
 13 17  1  0
 14 15  1  0
 15 16  2  0
 15 31  1  0
 16 17  1  0
 16 18  1  0
 18 19  2  0
 19 20  1  0
 19 29  1  0
 20 21  1  0
 21 22  2  0
 21 28  1  0
 22 23  1  0
 22 24  1  0
 24 25  1  0
 24 26  2  0
 26 27  1  0
 27 28  2  0
 29 30  1  0
 29 31  2  0
M  END
>  <Gold.Gold.Protein.RotatedWaterAtoms>  (315) 


>  <Gold.Id.Protein>  (315) 


>  <Gold.PLP.Chemscore.CHOScore>  (315) 
0.7802

>  <Gold.PLP.Chemscore.Hbond>  (315) 
2.2188

>  <Gold.PLP.Chemscore.Internal.Correction>  (315) 
0.0543

>  <Gold.PLP.Chemscore.Metal>  (315) 
0.0000

>  <Gold.PLP.Fitness>  (315) 
68.3772

>  <Gold.PLP.PLP>  (315) 
-62.9872

>  <Gold.PLP.ligand.clash>  (315) 
0.0000

>  <Gold.PLP.ligand.torsion>  (315) 
1.8305

>  <Gold.PLP.part.buried>  (315) 
6.4101

>  <Gold.PLP.part.hbond>  (315) 
-8.5520

>  <Gold.PLP.part.metal>  (315) 
0.0000

>  <Gold.PLP.part.nonpolar>  (315) 
-62.0773

>  <Gold.PLP.part.repulsive>  (315) 
1.1160

>  <Gold.Protein.RotatedAtoms>  (315) 


>  <Gold.Protein.RotatedTorsions>  (315) 


>  <Gold.Protein.RotatedWaterAtoms>  (315) 


>  <Gold.Version>  (315) 
5.3.0

>  <PLP.Chemscore.CHOScore>  (315) 


>  <PLP.Chemscore.Hbond>  (315) 


>  <PLP.Chemscore.Internal.Correction>  (315) 


>  <PLP.Chemscore.Metal>  (315) 


>  <PLP.Fitness>  (315) 


>  <PLP.PLP>  (315) 


>  <PLP.ligand.clash>  (315) 


>  <PLP.ligand.torsion>  (315) 


>  <PLP.part.buried>  (315) 


>  <PLP.part.hbond>  (315) 


>  <PLP.part.metal>  (315) 


>  <PLP.part.nonpolar>  (315) 


>  <PLP.part.repulsive>  (315) 


>  <Version>  (315) 


$$$$
3315|Compound_2058|Compounds_3D_F|sdf|594|dock6|1
     RDKit          3D

 31 35  0  0  0  0  0  0  0  0999 V2000
   -8.9760  -16.4114   11.8613 N   0  0  0  0  0  0  0  0  0  0  0  0
   -8.8852  -15.2027   11.2719 C   0  0  0  0  0  0  0  0  0  0  0  0
   -9.6646  -14.8972   10.3893 O   0  0  0  0  0  0  0  0  0  0  0  0
   -7.8423  -14.2520   11.6964 C   0  0  0  0  0  0  0  0  0  0  0  0
   -6.5262  -14.6999   11.9331 C   0  0  0  0  0  0  0  0  0  0  0  0
   -5.9274  -15.9057   11.8598 N   0  0  0  0  0  0  0  0  0  0  0  0
   -4.6702  -15.7938   12.1839 C   0  0  0  0  0  0  0  0  0  0  0  0
   -4.3812  -14.5018   12.4882 N   0  0  0  0  0  0  0  0  0  0  0  0
   -5.5471  -13.7767   12.3370 C   0  0  0  0  0  0  0  0  0  0  0  0
   -5.8793  -12.4401   12.4992 C   0  0  0  0  0  0  0  0  0  0  0  0
   -7.1706  -12.0114   12.2631 C   0  0  0  0  0  0  0  0  0  0  0  0
   -8.1466  -12.9032   11.8608 C   0  0  0  0  0  0  0  0  0  0  0  0
   -9.9511  -17.3066   11.4582 C   0  0  0  0  0  0  0  0  0  0  0  0
  -10.7106  -18.0044   12.2639 N   0  0  0  0  0  0  0  0  0  0  0  0
  -11.5578  -18.7802   11.5362 C   0  0  0  0  0  0  0  0  0  0  0  0
  -11.2850  -18.5302   10.1817 C   0  0  0  0  0  0  0  0  0  0  0  0
  -10.2684  -17.5895   10.1602 N   0  0  0  0  0  0  0  0  0  0  0  0
  -12.0040  -19.1901    9.1958 C   0  0  0  0  0  0  0  0  0  0  0  0
  -12.9884  -20.0941    9.5520 C   0  0  0  0  0  0  0  0  0  0  0  0
  -13.6930  -20.7418    8.5853 O   0  0  0  0  0  0  0  0  0  0  0  0
  -13.4552  -22.0673    8.4027 C   0  0  0  0  0  0  0  0  0  0  0  0
  -14.4961  -22.9201    8.0607 C   0  0  0  0  0  0  0  0  0  0  0  0
  -16.1035  -22.2940    7.8652 Cl  0  0  0  0  0  0  0  0  0  0  0  0
  -14.2505  -24.2688    7.8761 C   0  0  0  0  0  0  0  0  0  0  0  0
  -15.5504  -25.3368    7.4491 Cl  0  0  0  0  0  0  0  0  0  0  0  0
  -12.9686  -24.7673    8.0313 C   0  0  0  0  0  0  0  0  0  0  0  0
  -11.9311  -23.9186    8.3713 C   0  0  0  0  0  0  0  0  0  0  0  0
  -12.1703  -22.5706    8.5522 C   0  0  0  0  0  0  0  0  0  0  0  0
  -13.2616  -20.3450   10.8944 C   0  0  0  0  0  0  0  0  0  0  0  0
  -14.4994  -21.4820   11.3250 Cl  0  0  0  0  0  0  0  0  0  0  0  0
  -12.5540  -19.6964   11.8820 C   0  0  0  0  0  0  0  0  0  0  0  0
  1  2  1  0
  1 13  1  0
  2  3  2  0
  2  4  1  0
  4  5  2  0
  4 12  1  0
  5  6  1  0
  5  9  1  0
  6  7  2  0
  7  8  1  0
  8  9  1  0
  9 10  2  0
 10 11  1  0
 11 12  2  0
 13 14  2  0
 13 17  1  0
 14 15  1  0
 15 16  2  0
 15 31  1  0
 16 17  1  0
 16 18  1  0
 18 19  2  0
 19 20  1  0
 19 29  1  0
 20 21  1  0
 21 22  2  0
 21 28  1  0
 22 23  1  0
 22 24  1  0
 24 25  1  0
 24 26  2  0
 26 27  1  0
 27 28  2  0
 29 30  1  0
 29 31  2  0
M  END
>  <Gold.Gold.Protein.RotatedWaterAtoms>  (316) 


>  <Gold.Id.Protein>  (316) 


>  <Gold.PLP.Chemscore.CHOScore>  (316) 
0.0000

>  <Gold.PLP.Chemscore.Hbond>  (316) 
1.9750

>  <Gold.PLP.Chemscore.Internal.Correction>  (316) 
0.0543

>  <Gold.PLP.Chemscore.Metal>  (316) 
0.0000

>  <Gold.PLP.Fitness>  (316) 
64.6673

>  <Gold.PLP.PLP>  (316) 
-61.7433

>  <Gold.PLP.ligand.clash>  (316) 
0.0000

>  <Gold.PLP.ligand.torsion>  (316) 
1.5276

>  <Gold.PLP.part.buried>  (316) 
-3.1215

>  <Gold.PLP.part.hbond>  (316) 
-4.0189

>  <Gold.PLP.part.metal>  (316) 
0.0000

>  <Gold.PLP.part.nonpolar>  (316) 
-57.0508

>  <Gold.PLP.part.repulsive>  (316) 
1.9907

>  <Gold.Protein.RotatedAtoms>  (316) 


>  <Gold.Protein.RotatedTorsions>  (316) 


>  <Gold.Protein.RotatedWaterAtoms>  (316) 


>  <Gold.Version>  (316) 
5.3.0

>  <PLP.Chemscore.CHOScore>  (316) 


>  <PLP.Chemscore.Hbond>  (316) 


>  <PLP.Chemscore.Internal.Correction>  (316) 


>  <PLP.Chemscore.Metal>  (316) 


>  <PLP.Fitness>  (316) 


>  <PLP.PLP>  (316) 


>  <PLP.ligand.clash>  (316) 


>  <PLP.ligand.torsion>  (316) 


>  <PLP.part.buried>  (316) 


>  <PLP.part.hbond>  (316) 


>  <PLP.part.metal>  (316) 


>  <PLP.part.nonpolar>  (316) 


>  <PLP.part.repulsive>  (316) 


>  <Version>  (316) 


$$$$
3316|Compound_2058|Compounds_3D_F|sdf|594|dock7|1
     RDKit          3D

 31 35  0  0  0  0  0  0  0  0999 V2000
  -10.0105  -16.3856   11.8941 N   0  0  0  0  0  0  0  0  0  0  0  0
   -8.7332  -16.4487   11.4685 C   0  0  0  0  0  0  0  0  0  0  0  0
   -8.3723  -17.3731   10.7649 O   0  0  0  0  0  0  0  0  0  0  0  0
   -7.7745  -15.3983   11.8552 C   0  0  0  0  0  0  0  0  0  0  0  0
   -6.3909  -15.6705   11.8721 C   0  0  0  0  0  0  0  0  0  0  0  0
   -5.6556  -16.7660   11.5944 N   0  0  0  0  0  0  0  0  0  0  0  0
   -4.3908  -16.5026   11.7649 C   0  0  0  0  0  0  0  0  0  0  0  0
   -4.2336  -15.2142   12.1660 N   0  0  0  0  0  0  0  0  0  0  0  0
   -5.4942  -14.6548   12.2437 C   0  0  0  0  0  0  0  0  0  0  0  0
   -5.9724  -13.3996   12.5889 C   0  0  0  0  0  0  0  0  0  0  0  0
   -7.3291  -13.1429   12.5673 C   0  0  0  0  0  0  0  0  0  0  0  0
   -8.2268  -14.1274   12.2003 C   0  0  0  0  0  0  0  0  0  0  0  0
  -10.9090  -17.3752   11.5363 C   0  0  0  0  0  0  0  0  0  0  0  0
  -11.5173  -18.1769   12.3731 N   0  0  0  0  0  0  0  0  0  0  0  0
  -12.3291  -19.0245   11.6863 C   0  0  0  0  0  0  0  0  0  0  0  0
  -12.1976  -18.7081   10.3245 C   0  0  0  0  0  0  0  0  0  0  0  0
  -11.2978  -17.6571   10.2577 N   0  0  0  0  0  0  0  0  0  0  0  0
  -12.9165  -19.4189    9.3745 C   0  0  0  0  0  0  0  0  0  0  0  0
  -13.7613  -20.4389    9.7736 C   0  0  0  0  0  0  0  0  0  0  0  0
  -14.4657  -21.1364    8.8421 O   0  0  0  0  0  0  0  0  0  0  0  0
  -13.8998  -22.2574    8.3223 C   0  0  0  0  0  0  0  0  0  0  0  0
  -14.6904  -23.3556    8.0114 C   0  0  0  0  0  0  0  0  0  0  0  0
  -16.4036  -23.2983    8.2859 Cl  0  0  0  0  0  0  0  0  0  0  0  0
  -14.1109  -24.4950    7.4828 C   0  0  0  0  0  0  0  0  0  0  0  0
  -15.0972  -25.8694    7.0940 Cl  0  0  0  0  0  0  0  0  0  0  0  0
  -12.7450  -24.5398    7.2633 C   0  0  0  0  0  0  0  0  0  0  0  0
  -11.9570  -23.4463    7.5721 C   0  0  0  0  0  0  0  0  0  0  0  0
  -12.5312  -22.3048    8.0957 C   0  0  0  0  0  0  0  0  0  0  0  0
  -13.8939  -20.7558   11.1233 C   0  0  0  0  0  0  0  0  0  0  0  0
  -14.9574  -22.0382   11.6079 Cl  0  0  0  0  0  0  0  0  0  0  0  0
  -13.1849  -20.0576   12.0754 C   0  0  0  0  0  0  0  0  0  0  0  0
  1  2  1  0
  1 13  1  0
  2  3  2  0
  2  4  1  0
  4  5  2  0
  4 12  1  0
  5  6  1  0
  5  9  1  0
  6  7  2  0
  7  8  1  0
  8  9  1  0
  9 10  2  0
 10 11  1  0
 11 12  2  0
 13 14  2  0
 13 17  1  0
 14 15  1  0
 15 16  2  0
 15 31  1  0
 16 17  1  0
 16 18  1  0
 18 19  2  0
 19 20  1  0
 19 29  1  0
 20 21  1  0
 21 22  2  0
 21 28  1  0
 22 23  1  0
 22 24  1  0
 24 25  1  0
 24 26  2  0
 26 27  1  0
 27 28  2  0
 29 30  1  0
 29 31  2  0
M  END
>  <Gold.Gold.Protein.RotatedWaterAtoms>  (317) 


>  <Gold.Id.Protein>  (317) 


>  <Gold.PLP.Chemscore.CHOScore>  (317) 
0.0000

>  <Gold.PLP.Chemscore.Hbond>  (317) 
2.0000

>  <Gold.PLP.Chemscore.Internal.Correction>  (317) 
0.0543

>  <Gold.PLP.Chemscore.Metal>  (317) 
0.0000

>  <Gold.PLP.Fitness>  (317) 
67.9449

>  <Gold.PLP.PLP>  (317) 
-65.0094

>  <Gold.PLP.ligand.clash>  (317) 
0.0000

>  <Gold.PLP.ligand.torsion>  (317) 
1.5594

>  <Gold.PLP.part.buried>  (317) 
-7.6599

>  <Gold.PLP.part.hbond>  (317) 
-4.5452

>  <Gold.PLP.part.metal>  (317) 
0.0000

>  <Gold.PLP.part.nonpolar>  (317) 
-53.4853

>  <Gold.PLP.part.repulsive>  (317) 
0.5411

>  <Gold.Protein.RotatedAtoms>  (317) 


>  <Gold.Protein.RotatedTorsions>  (317) 


>  <Gold.Protein.RotatedWaterAtoms>  (317) 


>  <Gold.Version>  (317) 
5.3.0

>  <PLP.Chemscore.CHOScore>  (317) 


>  <PLP.Chemscore.Hbond>  (317) 


>  <PLP.Chemscore.Internal.Correction>  (317) 


>  <PLP.Chemscore.Metal>  (317) 


>  <PLP.Fitness>  (317) 


>  <PLP.PLP>  (317) 


>  <PLP.ligand.clash>  (317) 


>  <PLP.ligand.torsion>  (317) 


>  <PLP.part.buried>  (317) 


>  <PLP.part.hbond>  (317) 


>  <PLP.part.metal>  (317) 


>  <PLP.part.nonpolar>  (317) 


>  <PLP.part.repulsive>  (317) 


>  <Version>  (317) 


$$$$
3317|Compound_2058|Compounds_3D_F|sdf|594|dock8|1
     RDKit          3D

 31 35  0  0  0  0  0  0  0  0999 V2000
   -8.1717  -15.0395   12.0310 N   0  0  0  0  0  0  0  0  0  0  0  0
   -8.7748  -13.9226   11.5779 C   0  0  0  0  0  0  0  0  0  0  0  0
   -9.8543  -13.9979   11.0221 O   0  0  0  0  0  0  0  0  0  0  0  0
   -8.1271  -12.6109   11.7560 C   0  0  0  0  0  0  0  0  0  0  0  0
   -6.8152  -12.5298   12.2672 C   0  0  0  0  0  0  0  0  0  0  0  0
   -5.9180  -13.4499   12.6749 N   0  0  0  0  0  0  0  0  0  0  0  0
   -4.8268  -12.8568   13.0694 C   0  0  0  0  0  0  0  0  0  0  0  0
   -4.9559  -11.5107   12.9399 N   0  0  0  0  0  0  0  0  0  0  0  0
   -6.2162  -11.2693   12.4288 C   0  0  0  0  0  0  0  0  0  0  0  0
   -6.9143  -10.1208   12.0868 C   0  0  0  0  0  0  0  0  0  0  0  0
   -8.1978  -10.2113   11.5853 C   0  0  0  0  0  0  0  0  0  0  0  0
   -8.8025  -11.4421   11.4147 C   0  0  0  0  0  0  0  0  0  0  0  0
   -8.7769  -16.2718   11.8582 C   0  0  0  0  0  0  0  0  0  0  0  0
   -8.1658  -17.3618   11.4693 N   0  0  0  0  0  0  0  0  0  0  0  0
   -9.0561  -18.3877   11.4063 C   0  0  0  0  0  0  0  0  0  0  0  0
  -10.3058  -17.8728   11.7870 C   0  0  0  0  0  0  0  0  0  0  0  0
  -10.1001  -16.5332   12.0735 N   0  0  0  0  0  0  0  0  0  0  0  0
  -11.4180  -18.7014   11.8158 C   0  0  0  0  0  0  0  0  0  0  0  0
  -11.2911  -20.0341   11.4681 C   0  0  0  0  0  0  0  0  0  0  0  0
  -12.3818  -20.8466   11.4956 O   0  0  0  0  0  0  0  0  0  0  0  0
  -13.1781  -20.8825   10.3949 C   0  0  0  0  0  0  0  0  0  0  0  0
  -13.4972  -22.0991    9.8067 C   0  0  0  0  0  0  0  0  0  0  0  0
  -12.8795  -23.5766   10.4769 Cl  0  0  0  0  0  0  0  0  0  0  0  0
  -14.3077  -22.1318    8.6862 C   0  0  0  0  0  0  0  0  0  0  0  0
  -14.7073  -23.6514    7.9488 Cl  0  0  0  0  0  0  0  0  0  0  0  0
  -14.8005  -20.9535    8.1528 C   0  0  0  0  0  0  0  0  0  0  0  0
  -14.4838  -19.7415    8.7383 C   0  0  0  0  0  0  0  0  0  0  0  0
  -13.6789  -19.7038    9.8598 C   0  0  0  0  0  0  0  0  0  0  0  0
  -10.0533  -20.5483   11.0897 C   0  0  0  0  0  0  0  0  0  0  0  0
   -9.9105  -22.2222   10.6561 Cl  0  0  0  0  0  0  0  0  0  0  0  0
   -8.9422  -19.7353   11.0566 C   0  0  0  0  0  0  0  0  0  0  0  0
  1  2  1  0
  1 13  1  0
  2  3  2  0
  2  4  1  0
  4  5  2  0
  4 12  1  0
  5  6  1  0
  5  9  1  0
  6  7  2  0
  7  8  1  0
  8  9  1  0
  9 10  2  0
 10 11  1  0
 11 12  2  0
 13 14  2  0
 13 17  1  0
 14 15  1  0
 15 16  2  0
 15 31  1  0
 16 17  1  0
 16 18  1  0
 18 19  2  0
 19 20  1  0
 19 29  1  0
 20 21  1  0
 21 22  2  0
 21 28  1  0
 22 23  1  0
 22 24  1  0
 24 25  1  0
 24 26  2  0
 26 27  1  0
 27 28  2  0
 29 30  1  0
 29 31  2  0
M  END
>  <Gold.Gold.Protein.RotatedWaterAtoms>  (318) 


>  <Gold.Id.Protein>  (318) 


>  <Gold.PLP.Chemscore.CHOScore>  (318) 
0.9830

>  <Gold.PLP.Chemscore.Hbond>  (318) 
1.1200

>  <Gold.PLP.Chemscore.Internal.Correction>  (318) 
0.0543

>  <Gold.PLP.Chemscore.Metal>  (318) 
0.0000

>  <Gold.PLP.Fitness>  (318) 
76.4422

>  <Gold.PLP.PLP>  (318) 
-71.6517

>  <Gold.PLP.ligand.clash>  (318) 
0.0000

>  <Gold.PLP.ligand.torsion>  (318) 
0.7863

>  <Gold.PLP.part.buried>  (318) 
-4.3104

>  <Gold.PLP.part.hbond>  (318) 
-2.4342

>  <Gold.PLP.part.metal>  (318) 
0.0000

>  <Gold.PLP.part.nonpolar>  (318) 
-65.6410

>  <Gold.PLP.part.repulsive>  (318) 
1.4581

>  <Gold.Protein.RotatedAtoms>  (318) 


>  <Gold.Protein.RotatedTorsions>  (318) 


>  <Gold.Protein.RotatedWaterAtoms>  (318) 


>  <Gold.Version>  (318) 
5.3.0

>  <PLP.Chemscore.CHOScore>  (318) 


>  <PLP.Chemscore.Hbond>  (318) 


>  <PLP.Chemscore.Internal.Correction>  (318) 


>  <PLP.Chemscore.Metal>  (318) 


>  <PLP.Fitness>  (318) 


>  <PLP.PLP>  (318) 


>  <PLP.ligand.clash>  (318) 


>  <PLP.ligand.torsion>  (318) 


>  <PLP.part.buried>  (318) 


>  <PLP.part.hbond>  (318) 


>  <PLP.part.metal>  (318) 


>  <PLP.part.nonpolar>  (318) 


>  <PLP.part.repulsive>  (318) 


>  <Version>  (318) 


$$$$
3318|Compound_2058|Compounds_3D_F|sdf|594|dock9|1
     RDKit          3D

 31 35  0  0  0  0  0  0  0  0999 V2000
   -9.5752  -16.2142   11.9141 N   0  0  0  0  0  0  0  0  0  0  0  0
   -8.9624  -15.4126   11.0205 C   0  0  0  0  0  0  0  0  0  0  0  0
   -9.1899  -15.5416    9.8325 O   0  0  0  0  0  0  0  0  0  0  0  0
   -8.0175  -14.3803   11.4825 C   0  0  0  0  0  0  0  0  0  0  0  0
   -6.6891  -14.7265   11.8056 C   0  0  0  0  0  0  0  0  0  0  0  0
   -6.0022  -15.8867   11.7955 N   0  0  0  0  0  0  0  0  0  0  0  0
   -4.7778  -15.6773   12.1893 C   0  0  0  0  0  0  0  0  0  0  0  0
   -4.6008  -14.3620   12.4796 N   0  0  0  0  0  0  0  0  0  0  0  0
   -5.8045  -13.7269   12.2439 C   0  0  0  0  0  0  0  0  0  0  0  0
   -6.2406  -12.4151   12.3552 C   0  0  0  0  0  0  0  0  0  0  0  0
   -7.5430  -12.0863   12.0346 C   0  0  0  0  0  0  0  0  0  0  0  0
   -8.4269  -13.0544   11.5973 C   0  0  0  0  0  0  0  0  0  0  0  0
  -10.4575  -17.1876   11.4798 C   0  0  0  0  0  0  0  0  0  0  0  0
  -11.0541  -18.0601   12.2516 N   0  0  0  0  0  0  0  0  0  0  0  0
  -11.8515  -18.8656   11.5003 C   0  0  0  0  0  0  0  0  0  0  0  0
  -11.7234  -18.4445   10.1669 C   0  0  0  0  0  0  0  0  0  0  0  0
  -10.8402  -17.3775   10.1825 N   0  0  0  0  0  0  0  0  0  0  0  0
  -12.4297  -19.0921    9.1639 C   0  0  0  0  0  0  0  0  0  0  0  0
  -13.2587  -20.1526    9.4821 C   0  0  0  0  0  0  0  0  0  0  0  0
  -13.9509  -20.7882    8.4985 O   0  0  0  0  0  0  0  0  0  0  0  0
  -13.5545  -22.0395    8.1462 C   0  0  0  0  0  0  0  0  0  0  0  0
  -14.4976  -23.0412    7.9598 C   0  0  0  0  0  0  0  0  0  0  0  0
  -16.1853  -22.6965    8.1761 Cl  0  0  0  0  0  0  0  0  0  0  0  0
  -14.0906  -24.3138    7.6016 C   0  0  0  0  0  0  0  0  0  0  0  0
  -15.2678  -25.5678    7.3687 Cl  0  0  0  0  0  0  0  0  0  0  0  0
  -12.7449  -24.5878    7.4284 C   0  0  0  0  0  0  0  0  0  0  0  0
  -11.8049  -23.5906    7.6133 C   0  0  0  0  0  0  0  0  0  0  0  0
  -12.2065  -22.3174    7.9664 C   0  0  0  0  0  0  0  0  0  0  0  0
  -13.3880  -20.5733   10.8034 C   0  0  0  0  0  0  0  0  0  0  0  0
  -14.4317  -21.9055   11.1864 Cl  0  0  0  0  0  0  0  0  0  0  0  0
  -12.6914  -19.9386   11.8077 C   0  0  0  0  0  0  0  0  0  0  0  0
  1  2  1  0
  1 13  1  0
  2  3  2  0
  2  4  1  0
  4  5  2  0
  4 12  1  0
  5  6  1  0
  5  9  1  0
  6  7  2  0
  7  8  1  0
  8  9  1  0
  9 10  2  0
 10 11  1  0
 11 12  2  0
 13 14  2  0
 13 17  1  0
 14 15  1  0
 15 16  2  0
 15 31  1  0
 16 17  1  0
 16 18  1  0
 18 19  2  0
 19 20  1  0
 19 29  1  0
 20 21  1  0
 21 22  2  0
 21 28  1  0
 22 23  1  0
 22 24  1  0
 24 25  1  0
 24 26  2  0
 26 27  1  0
 27 28  2  0
 29 30  1  0
 29 31  2  0
M  END
>  <Gold.Gold.Protein.RotatedWaterAtoms>  (319) 


>  <Gold.Id.Protein>  (319) 


>  <Gold.PLP.Chemscore.CHOScore>  (319) 
0.0000

>  <Gold.PLP.Chemscore.Hbond>  (319) 
2.0000

>  <Gold.PLP.Chemscore.Internal.Correction>  (319) 
0.0539

>  <Gold.PLP.Chemscore.Metal>  (319) 
0.0000

>  <Gold.PLP.Fitness>  (319) 
68.1435

>  <Gold.PLP.PLP>  (319) 
-65.9223

>  <Gold.PLP.ligand.clash>  (319) 
0.2690

>  <Gold.PLP.ligand.torsion>  (319) 
1.7818

>  <Gold.PLP.part.buried>  (319) 
-3.7222

>  <Gold.PLP.part.hbond>  (319) 
-5.8955

>  <Gold.PLP.part.metal>  (319) 
0.0000

>  <Gold.PLP.part.nonpolar>  (319) 
-58.4059

>  <Gold.PLP.part.repulsive>  (319) 
0.8911

>  <Gold.Protein.RotatedAtoms>  (319) 


>  <Gold.Protein.RotatedTorsions>  (319) 


>  <Gold.Protein.RotatedWaterAtoms>  (319) 


>  <Gold.Version>  (319) 
5.3.0

>  <PLP.Chemscore.CHOScore>  (319) 


>  <PLP.Chemscore.Hbond>  (319) 


>  <PLP.Chemscore.Internal.Correction>  (319) 


>  <PLP.Chemscore.Metal>  (319) 


>  <PLP.Fitness>  (319) 


>  <PLP.PLP>  (319) 


>  <PLP.ligand.clash>  (319) 


>  <PLP.ligand.torsion>  (319) 


>  <PLP.part.buried>  (319) 


>  <PLP.part.hbond>  (319) 


>  <PLP.part.metal>  (319) 


>  <PLP.part.nonpolar>  (319) 


>  <PLP.part.repulsive>  (319) 


>  <Version>  (319) 


$$$$
3319|Compound_2059|Compounds_3D_F|sdf|595|dock1|1
     RDKit          3D

 21 23  0  0  0  0  0  0  0  0999 V2000
   -8.5753  -15.1123   12.1932 N   0  0  0  0  0  0  0  0  0  0  0  0
   -9.0219  -13.8483   12.0522 C   0  0  0  0  0  0  0  0  0  0  0  0
  -10.2089  -13.6373   11.8925 O   0  0  0  0  0  0  0  0  0  0  0  0
   -8.0711  -12.7227   12.0918 C   0  0  0  0  0  0  0  0  0  0  0  0
   -6.7296  -12.9390   12.4694 C   0  0  0  0  0  0  0  0  0  0  0  0
   -6.0330  -14.0319   12.8400 N   0  0  0  0  0  0  0  0  0  0  0  0
   -4.7982  -13.7025   13.0938 C   0  0  0  0  0  0  0  0  0  0  0  0
   -4.6229  -12.3696   12.9004 N   0  0  0  0  0  0  0  0  0  0  0  0
   -5.8394  -11.8520   12.5003 C   0  0  0  0  0  0  0  0  0  0  0  0
   -6.2826  -10.5818   12.1629 C   0  0  0  0  0  0  0  0  0  0  0  0
   -7.5991  -10.3807   11.7943 C   0  0  0  0  0  0  0  0  0  0  0  0
   -8.4891  -11.4380   11.7515 C   0  0  0  0  0  0  0  0  0  0  0  0
   -9.4678  -16.1719   12.1511 C   0  0  0  0  0  0  0  0  0  0  0  0
  -10.6908  -16.1760   12.6210 N   0  0  0  0  0  0  0  0  0  0  0  0
  -11.2257  -17.3260   12.4077 N   0  0  0  0  0  0  0  0  0  0  0  0
  -10.3712  -18.0957   11.7971 C   0  0  0  0  0  0  0  0  0  0  0  0
   -9.2424  -17.3846   11.6140 O   0  0  0  0  0  0  0  0  0  0  0  0
  -10.6067  -19.5202   11.3665 C   0  0  0  0  0  0  0  0  0  0  0  0
   -9.4389  -20.0343   10.7942 F   0  0  0  0  0  0  0  0  0  0  0  0
  -10.9596  -20.2919   12.4789 F   0  0  0  0  0  0  0  0  0  0  0  0
  -11.6420  -19.5569   10.4260 F   0  0  0  0  0  0  0  0  0  0  0  0
  1  2  1  0
  1 13  1  0
  2  3  2  0
  2  4  1  0
  4  5  2  0
  4 12  1  0
  5  6  1  0
  5  9  1  0
  6  7  2  0
  7  8  1  0
  8  9  1  0
  9 10  2  0
 10 11  1  0
 11 12  2  0
 13 14  2  0
 13 17  1  0
 14 15  1  0
 15 16  2  0
 16 17  1  0
 16 18  1  0
 18 19  1  0
 18 20  1  0
 18 21  1  0
M  END
>  <Gold.Gold.Protein.RotatedWaterAtoms>  (320) 


>  <Gold.Id.Protein>  (320) 


>  <Gold.PLP.Chemscore.CHOScore>  (320) 
0.6006

>  <Gold.PLP.Chemscore.Hbond>  (320) 
2.6847

>  <Gold.PLP.Chemscore.Internal.Correction>  (320) 
0.0018

>  <Gold.PLP.Chemscore.Metal>  (320) 
0.0000

>  <Gold.PLP.Fitness>  (320) 
62.1513

>  <Gold.PLP.PLP>  (320) 
-52.9393

>  <Gold.PLP.ligand.clash>  (320) 
0.0000

>  <Gold.PLP.ligand.torsion>  (320) 
0.3228

>  <Gold.PLP.part.buried>  (320) 
-3.8241

>  <Gold.PLP.part.hbond>  (320) 
-7.1999

>  <Gold.PLP.part.metal>  (320) 
0.0000

>  <Gold.PLP.part.nonpolar>  (320) 
-45.1260

>  <Gold.PLP.part.repulsive>  (320) 
0.7579

>  <Gold.Protein.RotatedAtoms>  (320) 


>  <Gold.Protein.RotatedTorsions>  (320) 


>  <Gold.Protein.RotatedWaterAtoms>  (320) 


>  <Gold.Version>  (320) 
5.3.0

>  <PLP.Chemscore.CHOScore>  (320) 


>  <PLP.Chemscore.Hbond>  (320) 


>  <PLP.Chemscore.Internal.Correction>  (320) 


>  <PLP.Chemscore.Metal>  (320) 


>  <PLP.Fitness>  (320) 


>  <PLP.PLP>  (320) 


>  <PLP.ligand.clash>  (320) 


>  <PLP.ligand.torsion>  (320) 


>  <PLP.part.buried>  (320) 


>  <PLP.part.hbond>  (320) 


>  <PLP.part.metal>  (320) 


>  <PLP.part.nonpolar>  (320) 


>  <PLP.part.repulsive>  (320) 


>  <Version>  (320) 


$$$$
3320|Compound_2059|Compounds_3D_F|sdf|595|dock2|1
     RDKit          3D

 21 23  0  0  0  0  0  0  0  0999 V2000
   -8.6618  -17.0566   10.7846 N   0  0  0  0  0  0  0  0  0  0  0  0
   -8.8866  -15.9811   11.5656 C   0  0  0  0  0  0  0  0  0  0  0  0
  -10.0023  -15.7679   11.9999 O   0  0  0  0  0  0  0  0  0  0  0  0
   -7.7797  -15.0644   11.8926 C   0  0  0  0  0  0  0  0  0  0  0  0
   -6.4483  -15.5294   11.8914 C   0  0  0  0  0  0  0  0  0  0  0  0
   -5.8822  -16.7264   11.6391 N   0  0  0  0  0  0  0  0  0  0  0  0
   -4.5891  -16.6396   11.7738 C   0  0  0  0  0  0  0  0  0  0  0  0
   -4.2414  -15.3738   12.1226 N   0  0  0  0  0  0  0  0  0  0  0  0
   -5.4078  -14.6387   12.2058 C   0  0  0  0  0  0  0  0  0  0  0  0
   -5.6945  -13.3172   12.5145 C   0  0  0  0  0  0  0  0  0  0  0  0
   -7.0025  -12.8717   12.5128 C   0  0  0  0  0  0  0  0  0  0  0  0
   -8.0399  -13.7307   12.2001 C   0  0  0  0  0  0  0  0  0  0  0  0
   -9.7030  -17.9166   10.4723 C   0  0  0  0  0  0  0  0  0  0  0  0
   -9.5900  -19.1566   10.0645 N   0  0  0  0  0  0  0  0  0  0  0  0
  -10.7617  -19.6500    9.8706 N   0  0  0  0  0  0  0  0  0  0  0  0
  -11.6625  -18.7508   10.1455 C   0  0  0  0  0  0  0  0  0  0  0  0
  -11.0171  -17.6362   10.5384 O   0  0  0  0  0  0  0  0  0  0  0  0
  -13.1555  -18.9289   10.0493 C   0  0  0  0  0  0  0  0  0  0  0  0
  -13.6877  -17.9579    9.1952 F   0  0  0  0  0  0  0  0  0  0  0  0
  -13.4423  -20.2018    9.5443 F   0  0  0  0  0  0  0  0  0  0  0  0
  -13.7232  -18.7930   11.3209 F   0  0  0  0  0  0  0  0  0  0  0  0
  1  2  1  0
  1 13  1  0
  2  3  2  0
  2  4  1  0
  4  5  2  0
  4 12  1  0
  5  6  1  0
  5  9  1  0
  6  7  2  0
  7  8  1  0
  8  9  1  0
  9 10  2  0
 10 11  1  0
 11 12  2  0
 13 14  2  0
 13 17  1  0
 14 15  1  0
 15 16  2  0
 16 17  1  0
 16 18  1  0
 18 19  1  0
 18 20  1  0
 18 21  1  0
M  END
>  <Gold.Gold.Protein.RotatedWaterAtoms>  (321) 


>  <Gold.Id.Protein>  (321) 


>  <Gold.PLP.Chemscore.CHOScore>  (321) 
0.0000

>  <Gold.PLP.Chemscore.Hbond>  (321) 
2.0000

>  <Gold.PLP.Chemscore.Internal.Correction>  (321) 
0.0018

>  <Gold.PLP.Chemscore.Metal>  (321) 
0.0000

>  <Gold.PLP.Fitness>  (321) 
57.4090

>  <Gold.PLP.PLP>  (321) 
-52.2253

>  <Gold.PLP.ligand.clash>  (321) 
0.0000

>  <Gold.PLP.ligand.torsion>  (321) 
0.4090

>  <Gold.PLP.part.buried>  (321) 
-9.3718

>  <Gold.PLP.part.hbond>  (321) 
-2.6562

>  <Gold.PLP.part.metal>  (321) 
0.0000

>  <Gold.PLP.part.nonpolar>  (321) 
-40.3584

>  <Gold.PLP.part.repulsive>  (321) 
0.2639

>  <Gold.Protein.RotatedAtoms>  (321) 


>  <Gold.Protein.RotatedTorsions>  (321) 


>  <Gold.Protein.RotatedWaterAtoms>  (321) 


>  <Gold.Version>  (321) 
5.3.0

>  <PLP.Chemscore.CHOScore>  (321) 


>  <PLP.Chemscore.Hbond>  (321) 


>  <PLP.Chemscore.Internal.Correction>  (321) 


>  <PLP.Chemscore.Metal>  (321) 


>  <PLP.Fitness>  (321) 


>  <PLP.PLP>  (321) 


>  <PLP.ligand.clash>  (321) 


>  <PLP.ligand.torsion>  (321) 


>  <PLP.part.buried>  (321) 


>  <PLP.part.hbond>  (321) 


>  <PLP.part.metal>  (321) 


>  <PLP.part.nonpolar>  (321) 


>  <PLP.part.repulsive>  (321) 


>  <Version>  (321) 


$$$$
3321|Compound_2059|Compounds_3D_F|sdf|595|dock3|1
     RDKit          3D

 21 23  0  0  0  0  0  0  0  0999 V2000
   -8.7829  -17.1291   11.2754 N   0  0  0  0  0  0  0  0  0  0  0  0
   -8.9801  -15.9533   11.9045 C   0  0  0  0  0  0  0  0  0  0  0  0
  -10.0884  -15.6591   12.3096 O   0  0  0  0  0  0  0  0  0  0  0  0
   -7.8521  -15.0252   12.1011 C   0  0  0  0  0  0  0  0  0  0  0  0
   -6.5258  -15.5038   12.0769 C   0  0  0  0  0  0  0  0  0  0  0  0
   -5.9813  -16.7242   11.9003 N   0  0  0  0  0  0  0  0  0  0  0  0
   -4.6826  -16.6413   11.9667 C   0  0  0  0  0  0  0  0  0  0  0  0
   -4.3093  -15.3547   12.1910 N   0  0  0  0  0  0  0  0  0  0  0  0
   -5.4649  -14.6019   12.2662 C   0  0  0  0  0  0  0  0  0  0  0  0
   -5.7268  -13.2559   12.4754 C   0  0  0  0  0  0  0  0  0  0  0  0
   -7.0300  -12.7972   12.4972 C   0  0  0  0  0  0  0  0  0  0  0  0
   -8.0875  -13.6675   12.3068 C   0  0  0  0  0  0  0  0  0  0  0  0
   -9.8439  -18.0005   11.0855 C   0  0  0  0  0  0  0  0  0  0  0  0
   -9.9267  -19.2310   11.5280 N   0  0  0  0  0  0  0  0  0  0  0  0
  -11.0505  -19.7400   11.1645 N   0  0  0  0  0  0  0  0  0  0  0  0
  -11.7247  -18.8604   10.4809 C   0  0  0  0  0  0  0  0  0  0  0  0
  -10.9829  -17.7383   10.4193 O   0  0  0  0  0  0  0  0  0  0  0  0
  -13.0902  -19.0603    9.8764 C   0  0  0  0  0  0  0  0  0  0  0  0
  -13.4756  -17.8993    9.1989 F   0  0  0  0  0  0  0  0  0  0  0  0
  -13.0510  -20.1327    8.9787 F   0  0  0  0  0  0  0  0  0  0  0  0
  -14.0128  -19.3355   10.8917 F   0  0  0  0  0  0  0  0  0  0  0  0
  1  2  1  0
  1 13  1  0
  2  3  2  0
  2  4  1  0
  4  5  2  0
  4 12  1  0
  5  6  1  0
  5  9  1  0
  6  7  2  0
  7  8  1  0
  8  9  1  0
  9 10  2  0
 10 11  1  0
 11 12  2  0
 13 14  2  0
 13 17  1  0
 14 15  1  0
 15 16  2  0
 16 17  1  0
 16 18  1  0
 18 19  1  0
 18 20  1  0
 18 21  1  0
M  END
>  <Gold.Gold.Protein.RotatedWaterAtoms>  (322) 


>  <Gold.Id.Protein>  (322) 


>  <Gold.PLP.Chemscore.CHOScore>  (322) 
0.0000

>  <Gold.PLP.Chemscore.Hbond>  (322) 
2.0000

>  <Gold.PLP.Chemscore.Internal.Correction>  (322) 
0.0018

>  <Gold.PLP.Chemscore.Metal>  (322) 
0.0000

>  <Gold.PLP.Fitness>  (322) 
58.2006

>  <Gold.PLP.PLP>  (322) 
-53.7433

>  <Gold.PLP.ligand.clash>  (322) 
0.0000

>  <Gold.PLP.ligand.torsion>  (322) 
0.7722

>  <Gold.PLP.part.buried>  (322) 
-10.1759

>  <Gold.PLP.part.hbond>  (322) 
-3.1324

>  <Gold.PLP.part.metal>  (322) 
0.0000

>  <Gold.PLP.part.nonpolar>  (322) 
-41.5946

>  <Gold.PLP.part.repulsive>  (322) 
0.2898

>  <Gold.Protein.RotatedAtoms>  (322) 


>  <Gold.Protein.RotatedTorsions>  (322) 


>  <Gold.Protein.RotatedWaterAtoms>  (322) 


>  <Gold.Version>  (322) 
5.3.0

>  <PLP.Chemscore.CHOScore>  (322) 


>  <PLP.Chemscore.Hbond>  (322) 


>  <PLP.Chemscore.Internal.Correction>  (322) 


>  <PLP.Chemscore.Metal>  (322) 


>  <PLP.Fitness>  (322) 


>  <PLP.PLP>  (322) 


>  <PLP.ligand.clash>  (322) 


>  <PLP.ligand.torsion>  (322) 


>  <PLP.part.buried>  (322) 


>  <PLP.part.hbond>  (322) 


>  <PLP.part.metal>  (322) 


>  <PLP.part.nonpolar>  (322) 


>  <PLP.part.repulsive>  (322) 


>  <Version>  (322) 


$$$$
3322|Compound_2059|Compounds_3D_F|sdf|595|dock4|1
     RDKit          3D

 21 23  0  0  0  0  0  0  0  0999 V2000
   -8.6218  -16.8767   11.5419 N   0  0  0  0  0  0  0  0  0  0  0  0
   -8.8685  -15.6124   11.9391 C   0  0  0  0  0  0  0  0  0  0  0  0
  -10.0055  -15.2679   12.1993 O   0  0  0  0  0  0  0  0  0  0  0  0
   -7.7599  -14.6483   12.0579 C   0  0  0  0  0  0  0  0  0  0  0  0
   -6.4244  -15.1009   12.0816 C   0  0  0  0  0  0  0  0  0  0  0  0
   -5.8553  -16.3210   12.0155 N   0  0  0  0  0  0  0  0  0  0  0  0
   -4.5590  -16.2068   12.0799 C   0  0  0  0  0  0  0  0  0  0  0  0
   -4.2120  -14.8984   12.1914 N   0  0  0  0  0  0  0  0  0  0  0  0
   -5.3823  -14.1649   12.1952 C   0  0  0  0  0  0  0  0  0  0  0  0
   -5.6715  -12.8113   12.2838 C   0  0  0  0  0  0  0  0  0  0  0  0
   -6.9835  -12.3783   12.2596 C   0  0  0  0  0  0  0  0  0  0  0  0
   -8.0227  -13.2827   12.1422 C   0  0  0  0  0  0  0  0  0  0  0  0
   -9.6642  -17.7827   11.4251 C   0  0  0  0  0  0  0  0  0  0  0  0
   -9.6160  -18.9491   10.8302 N   0  0  0  0  0  0  0  0  0  0  0  0
  -10.7659  -19.5189   10.9153 N   0  0  0  0  0  0  0  0  0  0  0  0
  -11.5874  -18.7441   11.5636 C   0  0  0  0  0  0  0  0  0  0  0  0
  -10.9110  -17.6316   11.9072 O   0  0  0  0  0  0  0  0  0  0  0  0
  -13.0302  -19.0428   11.8786 C   0  0  0  0  0  0  0  0  0  0  0  0
  -13.1031  -20.1536   12.7250 F   0  0  0  0  0  0  0  0  0  0  0  0
  -13.6090  -17.9366   12.5101 F   0  0  0  0  0  0  0  0  0  0  0  0
  -13.7189  -19.3154   10.6916 F   0  0  0  0  0  0  0  0  0  0  0  0
  1  2  1  0
  1 13  1  0
  2  3  2  0
  2  4  1  0
  4  5  2  0
  4 12  1  0
  5  6  1  0
  5  9  1  0
  6  7  2  0
  7  8  1  0
  8  9  1  0
  9 10  2  0
 10 11  1  0
 11 12  2  0
 13 14  2  0
 13 17  1  0
 14 15  1  0
 15 16  2  0
 16 17  1  0
 16 18  1  0
 18 19  1  0
 18 20  1  0
 18 21  1  0
M  END
>  <Gold.Gold.Protein.RotatedWaterAtoms>  (323) 


>  <Gold.Id.Protein>  (323) 


>  <Gold.PLP.Chemscore.CHOScore>  (323) 
0.0000

>  <Gold.PLP.Chemscore.Hbond>  (323) 
2.1479

>  <Gold.PLP.Chemscore.Internal.Correction>  (323) 
0.0018

>  <Gold.PLP.Chemscore.Metal>  (323) 
0.0000

>  <Gold.PLP.Fitness>  (323) 
57.9727

>  <Gold.PLP.PLP>  (323) 
-51.9270

>  <Gold.PLP.ligand.clash>  (323) 
0.0000

>  <Gold.PLP.ligand.torsion>  (323) 
0.1999

>  <Gold.PLP.part.buried>  (323) 
-9.2102

>  <Gold.PLP.part.hbond>  (323) 
-2.9203

>  <Gold.PLP.part.metal>  (323) 
0.0000

>  <Gold.PLP.part.nonpolar>  (323) 
-39.7645

>  <Gold.PLP.part.repulsive>  (323) 
0.4226

>  <Gold.Protein.RotatedAtoms>  (323) 


>  <Gold.Protein.RotatedTorsions>  (323) 


>  <Gold.Protein.RotatedWaterAtoms>  (323) 


>  <Gold.Version>  (323) 
5.3.0

>  <PLP.Chemscore.CHOScore>  (323) 


>  <PLP.Chemscore.Hbond>  (323) 


>  <PLP.Chemscore.Internal.Correction>  (323) 


>  <PLP.Chemscore.Metal>  (323) 


>  <PLP.Fitness>  (323) 


>  <PLP.PLP>  (323) 


>  <PLP.ligand.clash>  (323) 


>  <PLP.ligand.torsion>  (323) 


>  <PLP.part.buried>  (323) 


>  <PLP.part.hbond>  (323) 


>  <PLP.part.metal>  (323) 


>  <PLP.part.nonpolar>  (323) 


>  <PLP.part.repulsive>  (323) 


>  <Version>  (323) 


$$$$
3323|Compound_2059|Compounds_3D_F|sdf|595|dock5|1
     RDKit          3D

 21 23  0  0  0  0  0  0  0  0999 V2000
   -8.6669  -16.9334   10.9510 N   0  0  0  0  0  0  0  0  0  0  0  0
   -8.9218  -15.8470   11.7071 C   0  0  0  0  0  0  0  0  0  0  0  0
  -10.0360  -15.6703   12.1613 O   0  0  0  0  0  0  0  0  0  0  0  0
   -7.8496  -14.8739   11.9830 C   0  0  0  0  0  0  0  0  0  0  0  0
   -6.5010  -15.2863   11.9919 C   0  0  0  0  0  0  0  0  0  0  0  0
   -5.8900  -16.4707   11.7897 N   0  0  0  0  0  0  0  0  0  0  0  0
   -4.6005  -16.3277   11.9096 C   0  0  0  0  0  0  0  0  0  0  0  0
   -4.3005  -15.0347   12.1976 N   0  0  0  0  0  0  0  0  0  0  0  0
   -5.4942  -14.3424   12.2570 C   0  0  0  0  0  0  0  0  0  0  0  0
   -5.8306  -13.0203   12.5076 C   0  0  0  0  0  0  0  0  0  0  0  0
   -7.1551  -12.6266   12.4964 C   0  0  0  0  0  0  0  0  0  0  0  0
   -8.1600  -13.5387   12.2317 C   0  0  0  0  0  0  0  0  0  0  0  0
   -9.6757  -17.8466   10.6867 C   0  0  0  0  0  0  0  0  0  0  0  0
   -9.5208  -19.1223   10.4318 N   0  0  0  0  0  0  0  0  0  0  0  0
  -10.6722  -19.6608   10.2357 N   0  0  0  0  0  0  0  0  0  0  0  0
  -11.6009  -18.7562   10.3574 C   0  0  0  0  0  0  0  0  0  0  0  0
  -10.9957  -17.5897   10.6514 O   0  0  0  0  0  0  0  0  0  0  0  0
  -13.0833  -18.9774   10.2049 C   0  0  0  0  0  0  0  0  0  0  0  0
  -13.3229  -20.3087    9.8504 F   0  0  0  0  0  0  0  0  0  0  0  0
  -13.7247  -18.6947   11.4158 F   0  0  0  0  0  0  0  0  0  0  0  0
  -13.5796  -18.1325    9.2060 F   0  0  0  0  0  0  0  0  0  0  0  0
  1  2  1  0
  1 13  1  0
  2  3  2  0
  2  4  1  0
  4  5  2  0
  4 12  1  0
  5  6  1  0
  5  9  1  0
  6  7  2  0
  7  8  1  0
  8  9  1  0
  9 10  2  0
 10 11  1  0
 11 12  2  0
 13 14  2  0
 13 17  1  0
 14 15  1  0
 15 16  2  0
 16 17  1  0
 16 18  1  0
 18 19  1  0
 18 20  1  0
 18 21  1  0
M  END
>  <Gold.Gold.Protein.RotatedWaterAtoms>  (324) 


>  <Gold.Id.Protein>  (324) 


>  <Gold.PLP.Chemscore.CHOScore>  (324) 
0.0000

>  <Gold.PLP.Chemscore.Hbond>  (324) 
2.0000

>  <Gold.PLP.Chemscore.Internal.Correction>  (324) 
0.0018

>  <Gold.PLP.Chemscore.Metal>  (324) 
0.0000

>  <Gold.PLP.Fitness>  (324) 
57.2539

>  <Gold.PLP.PLP>  (324) 
-52.2399

>  <Gold.PLP.ligand.clash>  (324) 
0.0000

>  <Gold.PLP.ligand.torsion>  (324) 
0.4939

>  <Gold.PLP.part.buried>  (324) 
-9.5325

>  <Gold.PLP.part.hbond>  (324) 
-2.8961

>  <Gold.PLP.part.metal>  (324) 
0.0000

>  <Gold.PLP.part.nonpolar>  (324) 
-39.9336

>  <Gold.PLP.part.repulsive>  (324) 
0.3024

>  <Gold.Protein.RotatedAtoms>  (324) 


>  <Gold.Protein.RotatedTorsions>  (324) 


>  <Gold.Protein.RotatedWaterAtoms>  (324) 


>  <Gold.Version>  (324) 
5.3.0

>  <PLP.Chemscore.CHOScore>  (324) 


>  <PLP.Chemscore.Hbond>  (324) 


>  <PLP.Chemscore.Internal.Correction>  (324) 


>  <PLP.Chemscore.Metal>  (324) 


>  <PLP.Fitness>  (324) 


>  <PLP.PLP>  (324) 


>  <PLP.ligand.clash>  (324) 


>  <PLP.ligand.torsion>  (324) 


>  <PLP.part.buried>  (324) 


>  <PLP.part.hbond>  (324) 


>  <PLP.part.metal>  (324) 


>  <PLP.part.nonpolar>  (324) 


>  <PLP.part.repulsive>  (324) 


>  <Version>  (324) 


$$$$
3324|Compound_2059|Compounds_3D_F|sdf|595|dock6|1
     RDKit          3D

 21 23  0  0  0  0  0  0  0  0999 V2000
   -8.6764  -16.9215   11.7058 N   0  0  0  0  0  0  0  0  0  0  0  0
   -8.9529  -15.6354   12.0001 C   0  0  0  0  0  0  0  0  0  0  0  0
  -10.1032  -15.2889   12.1892 O   0  0  0  0  0  0  0  0  0  0  0  0
   -7.8606  -14.6501   12.0927 C   0  0  0  0  0  0  0  0  0  0  0  0
   -6.5171  -15.0786   12.1136 C   0  0  0  0  0  0  0  0  0  0  0  0
   -5.9271  -16.2895   12.0646 N   0  0  0  0  0  0  0  0  0  0  0  0
   -4.6325  -16.1515   12.1163 C   0  0  0  0  0  0  0  0  0  0  0  0
   -4.3078  -14.8354   12.2018 N   0  0  0  0  0  0  0  0  0  0  0  0
   -5.4909  -14.1226   12.2020 C   0  0  0  0  0  0  0  0  0  0  0  0
   -5.8033  -12.7728   12.2690 C   0  0  0  0  0  0  0  0  0  0  0  0
   -7.1229  -12.3635   12.2477 C   0  0  0  0  0  0  0  0  0  0  0  0
   -8.1469  -13.2880   12.1549 C   0  0  0  0  0  0  0  0  0  0  0  0
   -9.7032  -17.8479   11.6135 C   0  0  0  0  0  0  0  0  0  0  0  0
   -9.6328  -19.0321   11.0573 N   0  0  0  0  0  0  0  0  0  0  0  0
  -10.7736  -19.6177   11.1553 N   0  0  0  0  0  0  0  0  0  0  0  0
  -11.6112  -18.8359   11.7740 C   0  0  0  0  0  0  0  0  0  0  0  0
  -10.9549  -17.7018   12.0845 O   0  0  0  0  0  0  0  0  0  0  0  0
  -13.0505  -19.1480   12.0917 C   0  0  0  0  0  0  0  0  0  0  0  0
  -13.7131  -19.5368   10.9233 F   0  0  0  0  0  0  0  0  0  0  0  0
  -13.1076  -20.1863   13.0277 F   0  0  0  0  0  0  0  0  0  0  0  0
  -13.6678  -18.0090   12.6206 F   0  0  0  0  0  0  0  0  0  0  0  0
  1  2  1  0
  1 13  1  0
  2  3  2  0
  2  4  1  0
  4  5  2  0
  4 12  1  0
  5  6  1  0
  5  9  1  0
  6  7  2  0
  7  8  1  0
  8  9  1  0
  9 10  2  0
 10 11  1  0
 11 12  2  0
 13 14  2  0
 13 17  1  0
 14 15  1  0
 15 16  2  0
 16 17  1  0
 16 18  1  0
 18 19  1  0
 18 20  1  0
 18 21  1  0
M  END
>  <Gold.Gold.Protein.RotatedWaterAtoms>  (325) 


>  <Gold.Id.Protein>  (325) 


>  <Gold.PLP.Chemscore.CHOScore>  (325) 
0.0000

>  <Gold.PLP.Chemscore.Hbond>  (325) 
2.4778

>  <Gold.PLP.Chemscore.Internal.Correction>  (325) 
0.0018

>  <Gold.PLP.Chemscore.Metal>  (325) 
0.0000

>  <Gold.PLP.Fitness>  (325) 
58.2402

>  <Gold.PLP.PLP>  (325) 
-51.3346

>  <Gold.PLP.ligand.clash>  (325) 
0.0000

>  <Gold.PLP.ligand.torsion>  (325) 
0.2647

>  <Gold.PLP.part.buried>  (325) 
-8.5223

>  <Gold.PLP.part.hbond>  (325) 
-2.9970

>  <Gold.PLP.part.metal>  (325) 
0.0000

>  <Gold.PLP.part.nonpolar>  (325) 
-40.7617

>  <Gold.PLP.part.repulsive>  (325) 
0.4352

>  <Gold.Protein.RotatedAtoms>  (325) 


>  <Gold.Protein.RotatedTorsions>  (325) 


>  <Gold.Protein.RotatedWaterAtoms>  (325) 


>  <Gold.Version>  (325) 
5.3.0

>  <PLP.Chemscore.CHOScore>  (325) 


>  <PLP.Chemscore.Hbond>  (325) 


>  <PLP.Chemscore.Internal.Correction>  (325) 


>  <PLP.Chemscore.Metal>  (325) 


>  <PLP.Fitness>  (325) 


>  <PLP.PLP>  (325) 


>  <PLP.ligand.clash>  (325) 


>  <PLP.ligand.torsion>  (325) 


>  <PLP.part.buried>  (325) 


>  <PLP.part.hbond>  (325) 


>  <PLP.part.metal>  (325) 


>  <PLP.part.nonpolar>  (325) 


>  <PLP.part.repulsive>  (325) 


>  <Version>  (325) 


$$$$
3325|Compound_2059|Compounds_3D_F|sdf|595|dock7|1
     RDKit          3D

 21 23  0  0  0  0  0  0  0  0999 V2000
   -8.6485  -16.8156   11.6963 N   0  0  0  0  0  0  0  0  0  0  0  0
   -8.9140  -15.5322   12.0115 C   0  0  0  0  0  0  0  0  0  0  0  0
  -10.0624  -15.1762   12.1940 O   0  0  0  0  0  0  0  0  0  0  0  0
   -7.8119  -14.5612   12.1349 C   0  0  0  0  0  0  0  0  0  0  0  0
   -6.4722  -15.0017   12.1215 C   0  0  0  0  0  0  0  0  0  0  0  0
   -5.8937  -16.2143   12.0125 N   0  0  0  0  0  0  0  0  0  0  0  0
   -4.5974  -16.0897   12.0554 C   0  0  0  0  0  0  0  0  0  0  0  0
   -4.2600  -14.7814   12.1950 N   0  0  0  0  0  0  0  0  0  0  0  0
   -5.4365  -14.0593   12.2402 C   0  0  0  0  0  0  0  0  0  0  0  0
   -5.7360  -12.7112   12.3701 C   0  0  0  0  0  0  0  0  0  0  0  0
   -7.0520  -12.2901   12.3820 C   0  0  0  0  0  0  0  0  0  0  0  0
   -8.0852  -13.2008   12.2602 C   0  0  0  0  0  0  0  0  0  0  0  0
   -9.6844  -17.7285   11.5751 C   0  0  0  0  0  0  0  0  0  0  0  0
   -9.6276  -18.8923   10.9761 N   0  0  0  0  0  0  0  0  0  0  0  0
  -10.7736  -19.4704   11.0579 N   0  0  0  0  0  0  0  0  0  0  0  0
  -11.6011  -18.7037   11.7082 C   0  0  0  0  0  0  0  0  0  0  0  0
  -10.9327  -17.5878   12.0565 O   0  0  0  0  0  0  0  0  0  0  0  0
  -13.0420  -19.0135   12.0207 C   0  0  0  0  0  0  0  0  0  0  0  0
  -13.6359  -17.9055   12.6332 F   0  0  0  0  0  0  0  0  0  0  0  0
  -13.7232  -19.3120   10.8356 F   0  0  0  0  0  0  0  0  0  0  0  0
  -13.1049  -20.1128   12.8842 F   0  0  0  0  0  0  0  0  0  0  0  0
  1  2  1  0
  1 13  1  0
  2  3  2  0
  2  4  1  0
  4  5  2  0
  4 12  1  0
  5  6  1  0
  5  9  1  0
  6  7  2  0
  7  8  1  0
  8  9  1  0
  9 10  2  0
 10 11  1  0
 11 12  2  0
 13 14  2  0
 13 17  1  0
 14 15  1  0
 15 16  2  0
 16 17  1  0
 16 18  1  0
 18 19  1  0
 18 20  1  0
 18 21  1  0
M  END
>  <Gold.Gold.Protein.RotatedWaterAtoms>  (326) 


>  <Gold.Id.Protein>  (326) 


>  <Gold.PLP.Chemscore.CHOScore>  (326) 
0.0000

>  <Gold.PLP.Chemscore.Hbond>  (326) 
2.3697

>  <Gold.PLP.Chemscore.Internal.Correction>  (326) 
0.0018

>  <Gold.PLP.Chemscore.Metal>  (326) 
0.0000

>  <Gold.PLP.Fitness>  (326) 
58.3364

>  <Gold.PLP.PLP>  (326) 
-51.6059

>  <Gold.PLP.ligand.clash>  (326) 
0.0000

>  <Gold.PLP.ligand.torsion>  (326) 
0.1902

>  <Gold.PLP.part.buried>  (326) 
-9.0992

>  <Gold.PLP.part.hbond>  (326) 
-3.1044

>  <Gold.PLP.part.metal>  (326) 
0.0000

>  <Gold.PLP.part.nonpolar>  (326) 
-40.9144

>  <Gold.PLP.part.repulsive>  (326) 
0.4537

>  <Gold.Protein.RotatedAtoms>  (326) 


>  <Gold.Protein.RotatedTorsions>  (326) 


>  <Gold.Protein.RotatedWaterAtoms>  (326) 


>  <Gold.Version>  (326) 
5.3.0

>  <PLP.Chemscore.CHOScore>  (326) 


>  <PLP.Chemscore.Hbond>  (326) 


>  <PLP.Chemscore.Internal.Correction>  (326) 


>  <PLP.Chemscore.Metal>  (326) 


>  <PLP.Fitness>  (326) 


>  <PLP.PLP>  (326) 


>  <PLP.ligand.clash>  (326) 


>  <PLP.ligand.torsion>  (326) 


>  <PLP.part.buried>  (326) 


>  <PLP.part.hbond>  (326) 


>  <PLP.part.metal>  (326) 


>  <PLP.part.nonpolar>  (326) 


>  <PLP.part.repulsive>  (326) 


>  <Version>  (326) 


$$$$
3326|Compound_2059|Compounds_3D_F|sdf|595|dock8|1
     RDKit          3D

 21 23  0  0  0  0  0  0  0  0999 V2000
   -8.7136  -17.0078   10.8556 N   0  0  0  0  0  0  0  0  0  0  0  0
   -8.9359  -15.9417   11.6500 C   0  0  0  0  0  0  0  0  0  0  0  0
  -10.0422  -15.7530   12.1185 O   0  0  0  0  0  0  0  0  0  0  0  0
   -7.8378  -15.0055   11.9503 C   0  0  0  0  0  0  0  0  0  0  0  0
   -6.5025  -15.4588   11.9673 C   0  0  0  0  0  0  0  0  0  0  0  0
   -5.9255  -16.6583   11.7549 N   0  0  0  0  0  0  0  0  0  0  0  0
   -4.6336  -16.5562   11.8900 C   0  0  0  0  0  0  0  0  0  0  0  0
   -4.2977  -15.2769   12.1990 N   0  0  0  0  0  0  0  0  0  0  0  0
   -5.4705  -14.5495   12.2557 C   0  0  0  0  0  0  0  0  0  0  0  0
   -5.7694  -13.2214   12.5212 C   0  0  0  0  0  0  0  0  0  0  0  0
   -7.0811  -12.7874   12.5019 C   0  0  0  0  0  0  0  0  0  0  0  0
   -8.1103  -13.6649   12.2143 C   0  0  0  0  0  0  0  0  0  0  0  0
   -9.7467  -17.8861   10.5684 C   0  0  0  0  0  0  0  0  0  0  0  0
   -9.6238  -19.1486   10.2404 N   0  0  0  0  0  0  0  0  0  0  0  0
  -10.7903  -19.6539   10.0455 N   0  0  0  0  0  0  0  0  0  0  0  0
  -11.6974  -18.7403   10.2404 C   0  0  0  0  0  0  0  0  0  0  0  0
  -11.0618  -17.6032   10.5816 O   0  0  0  0  0  0  0  0  0  0  0  0
  -13.1873  -18.9251   10.1149 C   0  0  0  0  0  0  0  0  0  0  0  0
  -13.6974  -17.9995    9.1992 F   0  0  0  0  0  0  0  0  0  0  0  0
  -13.4609  -20.2224    9.6680 F   0  0  0  0  0  0  0  0  0  0  0  0
  -13.7878  -18.7256   11.3629 F   0  0  0  0  0  0  0  0  0  0  0  0
  1  2  1  0
  1 13  1  0
  2  3  2  0
  2  4  1  0
  4  5  2  0
  4 12  1  0
  5  6  1  0
  5  9  1  0
  6  7  2  0
  7  8  1  0
  8  9  1  0
  9 10  2  0
 10 11  1  0
 11 12  2  0
 13 14  2  0
 13 17  1  0
 14 15  1  0
 15 16  2  0
 16 17  1  0
 16 18  1  0
 18 19  1  0
 18 20  1  0
 18 21  1  0
M  END
>  <Gold.Gold.Protein.RotatedWaterAtoms>  (327) 


>  <Gold.Id.Protein>  (327) 


>  <Gold.PLP.Chemscore.CHOScore>  (327) 
0.0000

>  <Gold.PLP.Chemscore.Hbond>  (327) 
2.0000

>  <Gold.PLP.Chemscore.Internal.Correction>  (327) 
0.0018

>  <Gold.PLP.Chemscore.Metal>  (327) 
0.0000

>  <Gold.PLP.Fitness>  (327) 
57.4969

>  <Gold.PLP.PLP>  (327) 
-52.5636

>  <Gold.PLP.ligand.clash>  (327) 
0.0000

>  <Gold.PLP.ligand.torsion>  (327) 
0.5342

>  <Gold.PLP.part.buried>  (327) 
-9.3588

>  <Gold.PLP.part.hbond>  (327) 
-2.8099

>  <Gold.PLP.part.metal>  (327) 
0.0000

>  <Gold.PLP.part.nonpolar>  (327) 
-40.5177

>  <Gold.PLP.part.repulsive>  (327) 
0.2650

>  <Gold.Protein.RotatedAtoms>  (327) 


>  <Gold.Protein.RotatedTorsions>  (327) 


>  <Gold.Protein.RotatedWaterAtoms>  (327) 


>  <Gold.Version>  (327) 
5.3.0

>  <PLP.Chemscore.CHOScore>  (327) 


>  <PLP.Chemscore.Hbond>  (327) 


>  <PLP.Chemscore.Internal.Correction>  (327) 


>  <PLP.Chemscore.Metal>  (327) 


>  <PLP.Fitness>  (327) 


>  <PLP.PLP>  (327) 


>  <PLP.ligand.clash>  (327) 


>  <PLP.ligand.torsion>  (327) 


>  <PLP.part.buried>  (327) 


>  <PLP.part.hbond>  (327) 


>  <PLP.part.metal>  (327) 


>  <PLP.part.nonpolar>  (327) 


>  <PLP.part.repulsive>  (327) 


>  <Version>  (327) 


$$$$
3327|Compound_2059|Compounds_3D_F|sdf|595|dock9|1
     RDKit          3D

 21 23  0  0  0  0  0  0  0  0999 V2000
   -8.6880  -16.9523   10.7142 N   0  0  0  0  0  0  0  0  0  0  0  0
   -8.9045  -15.9403   11.5779 C   0  0  0  0  0  0  0  0  0  0  0  0
   -9.9993  -15.8008   12.0887 O   0  0  0  0  0  0  0  0  0  0  0  0
   -7.8139  -15.0035   11.9027 C   0  0  0  0  0  0  0  0  0  0  0  0
   -6.4759  -15.4492   11.9195 C   0  0  0  0  0  0  0  0  0  0  0  0
   -5.8905  -16.6411   11.6881 N   0  0  0  0  0  0  0  0  0  0  0  0
   -4.6001  -16.5339   11.8332 C   0  0  0  0  0  0  0  0  0  0  0  0
   -4.2737  -15.2588   12.1684 N   0  0  0  0  0  0  0  0  0  0  0  0
   -5.4512  -14.5395   12.2315 C   0  0  0  0  0  0  0  0  0  0  0  0
   -5.7597  -13.2184   12.5201 C   0  0  0  0  0  0  0  0  0  0  0  0
   -7.0739  -12.7919   12.5009 C   0  0  0  0  0  0  0  0  0  0  0  0
   -8.0960  -13.6698   12.1903 C   0  0  0  0  0  0  0  0  0  0  0  0
   -9.7142  -17.8309   10.4042 C   0  0  0  0  0  0  0  0  0  0  0  0
   -9.5797  -19.0541    9.9543 N   0  0  0  0  0  0  0  0  0  0  0  0
  -10.7428  -19.5737    9.7778 N   0  0  0  0  0  0  0  0  0  0  0  0
  -11.6592  -18.7089   10.1062 C   0  0  0  0  0  0  0  0  0  0  0  0
  -11.0329  -17.5894   10.5159 O   0  0  0  0  0  0  0  0  0  0  0  0
  -13.1489  -18.9254   10.0463 C   0  0  0  0  0  0  0  0  0  0  0  0
  -13.7261  -17.9713    9.2025 F   0  0  0  0  0  0  0  0  0  0  0  0
  -13.4150  -20.2069    9.5520 F   0  0  0  0  0  0  0  0  0  0  0  0
  -13.6895  -18.7996   11.3308 F   0  0  0  0  0  0  0  0  0  0  0  0
  1  2  1  0
  1 13  1  0
  2  3  2  0
  2  4  1  0
  4  5  2  0
  4 12  1  0
  5  6  1  0
  5  9  1  0
  6  7  2  0
  7  8  1  0
  8  9  1  0
  9 10  2  0
 10 11  1  0
 11 12  2  0
 13 14  2  0
 13 17  1  0
 14 15  1  0
 15 16  2  0
 16 17  1  0
 16 18  1  0
 18 19  1  0
 18 20  1  0
 18 21  1  0
M  END
>  <Gold.Gold.Protein.RotatedWaterAtoms>  (328) 


>  <Gold.Id.Protein>  (328) 


>  <Gold.PLP.Chemscore.CHOScore>  (328) 
0.0000

>  <Gold.PLP.Chemscore.Hbond>  (328) 
2.0000

>  <Gold.PLP.Chemscore.Internal.Correction>  (328) 
0.0018

>  <Gold.PLP.Chemscore.Metal>  (328) 
0.0000

>  <Gold.PLP.Fitness>  (328) 
57.5966

>  <Gold.PLP.PLP>  (328) 
-52.6903

>  <Gold.PLP.ligand.clash>  (328) 
0.0000

>  <Gold.PLP.ligand.torsion>  (328) 
0.5477

>  <Gold.PLP.part.buried>  (328) 
-9.3262

>  <Gold.PLP.part.hbond>  (328) 
-3.0012

>  <Gold.PLP.part.metal>  (328) 
0.0000

>  <Gold.PLP.part.nonpolar>  (328) 
-40.7898

>  <Gold.PLP.part.repulsive>  (328) 
0.2648

>  <Gold.Protein.RotatedAtoms>  (328) 


>  <Gold.Protein.RotatedTorsions>  (328) 


>  <Gold.Protein.RotatedWaterAtoms>  (328) 


>  <Gold.Version>  (328) 
5.3.0

>  <PLP.Chemscore.CHOScore>  (328) 


>  <PLP.Chemscore.Hbond>  (328) 


>  <PLP.Chemscore.Internal.Correction>  (328) 


>  <PLP.Chemscore.Metal>  (328) 


>  <PLP.Fitness>  (328) 


>  <PLP.PLP>  (328) 


>  <PLP.ligand.clash>  (328) 


>  <PLP.ligand.torsion>  (328) 


>  <PLP.part.buried>  (328) 


>  <PLP.part.hbond>  (328) 


>  <PLP.part.metal>  (328) 


>  <PLP.part.nonpolar>  (328) 


>  <PLP.part.repulsive>  (328) 


>  <Version>  (328) 


$$$$
3328|Compound_2061|Compounds_3D_F|sdf|596|dock1|1
     RDKit          3D

 21 23  0  0  0  0  0  0  0  0999 V2000
   -8.3850  -15.0691   11.9026 N   0  0  0  0  0  0  0  0  0  0  0  0
   -9.0020  -13.8750   12.0058 C   0  0  0  0  0  0  0  0  0  0  0  0
  -10.2130  -13.8233   12.1054 O   0  0  0  0  0  0  0  0  0  0  0  0
   -8.2084  -12.6330   11.9978 C   0  0  0  0  0  0  0  0  0  0  0  0
   -6.8522  -12.6540   12.3841 C   0  0  0  0  0  0  0  0  0  0  0  0
   -6.0198  -13.6286   12.8014 N   0  0  0  0  0  0  0  0  0  0  0  0
   -4.8404  -13.1288   13.0400 C   0  0  0  0  0  0  0  0  0  0  0  0
   -4.8416  -11.7937   12.7905 N   0  0  0  0  0  0  0  0  0  0  0  0
   -6.1136  -11.4586   12.3690 C   0  0  0  0  0  0  0  0  0  0  0  0
   -6.7183  -10.2737   11.9764 C   0  0  0  0  0  0  0  0  0  0  0  0
   -8.0477  -10.2640   11.5997 C   0  0  0  0  0  0  0  0  0  0  0  0
   -8.7906  -11.4302   11.6037 C   0  0  0  0  0  0  0  0  0  0  0  0
   -9.1328  -16.2404   11.9050 C   0  0  0  0  0  0  0  0  0  0  0  0
  -10.3771  -16.4573   12.3106 N   0  0  0  0  0  0  0  0  0  0  0  0
  -10.9103  -17.5977   12.2397 N   0  0  0  0  0  0  0  0  0  0  0  0
  -10.2679  -18.6451   11.7607 C   0  0  0  0  0  0  0  0  0  0  0  0
   -8.6966  -17.8876   11.3535 S   0  0  0  0  0  0  0  0  0  0  0  0
  -10.7264  -20.0711   11.5972 C   0  0  0  0  0  0  0  0  0  0  0  0
  -11.8286  -20.1112   10.7370 F   0  0  0  0  0  0  0  0  0  0  0  0
   -9.6864  -20.8364   11.0593 F   0  0  0  0  0  0  0  0  0  0  0  0
  -11.0890  -20.5897   12.8449 F   0  0  0  0  0  0  0  0  0  0  0  0
  1  2  1  0
  1 13  1  0
  2  3  2  0
  2  4  1  0
  4  5  2  0
  4 12  1  0
  5  6  1  0
  5  9  1  0
  6  7  2  0
  7  8  1  0
  8  9  1  0
  9 10  2  0
 10 11  1  0
 11 12  2  0
 13 14  2  0
 13 17  1  0
 14 15  1  0
 15 16  2  0
 16 17  1  0
 16 18  1  0
 18 19  1  0
 18 20  1  0
 18 21  1  0
M  END
>  <Gold.Gold.Protein.RotatedWaterAtoms>  (329) 


>  <Gold.Id.Protein>  (329) 


>  <Gold.PLP.Chemscore.CHOScore>  (329) 
0.9740

>  <Gold.PLP.Chemscore.Hbond>  (329) 
2.5444

>  <Gold.PLP.Chemscore.Internal.Correction>  (329) 
0.0019

>  <Gold.PLP.Chemscore.Metal>  (329) 
0.0000

>  <Gold.PLP.Fitness>  (329) 
66.5725

>  <Gold.PLP.PLP>  (329) 
-56.6723

>  <Gold.PLP.ligand.clash>  (329) 
0.0000

>  <Gold.PLP.ligand.torsion>  (329) 
0.3284

>  <Gold.PLP.part.buried>  (329) 
-5.1570

>  <Gold.PLP.part.hbond>  (329) 
-4.8490

>  <Gold.PLP.part.metal>  (329) 
0.0000

>  <Gold.PLP.part.nonpolar>  (329) 
-47.5094

>  <Gold.PLP.part.repulsive>  (329) 
0.6423

>  <Gold.Protein.RotatedAtoms>  (329) 


>  <Gold.Protein.RotatedTorsions>  (329) 


>  <Gold.Protein.RotatedWaterAtoms>  (329) 


>  <Gold.Version>  (329) 
5.3.0

>  <PLP.Chemscore.CHOScore>  (329) 


>  <PLP.Chemscore.Hbond>  (329) 


>  <PLP.Chemscore.Internal.Correction>  (329) 


>  <PLP.Chemscore.Metal>  (329) 


>  <PLP.Fitness>  (329) 


>  <PLP.PLP>  (329) 


>  <PLP.ligand.clash>  (329) 


>  <PLP.ligand.torsion>  (329) 


>  <PLP.part.buried>  (329) 


>  <PLP.part.hbond>  (329) 


>  <PLP.part.metal>  (329) 


>  <PLP.part.nonpolar>  (329) 


>  <PLP.part.repulsive>  (329) 


>  <Version>  (329) 


$$$$
3329|Compound_2061|Compounds_3D_F|sdf|596|dock2|1
     RDKit          3D

 21 23  0  0  0  0  0  0  0  0999 V2000
   -9.0697  -16.4843   11.6178 N   0  0  0  0  0  0  0  0  0  0  0  0
   -9.1405  -15.2471   12.1484 C   0  0  0  0  0  0  0  0  0  0  0  0
  -10.1975  -14.8323   12.5841 O   0  0  0  0  0  0  0  0  0  0  0  0
   -7.9368  -14.3982   12.2003 C   0  0  0  0  0  0  0  0  0  0  0  0
   -6.6536  -14.9831   12.1822 C   0  0  0  0  0  0  0  0  0  0  0  0
   -6.2131  -16.2557   12.1240 N   0  0  0  0  0  0  0  0  0  0  0  0
   -4.9103  -16.2721   12.1335 C   0  0  0  0  0  0  0  0  0  0  0  0
   -4.4294  -15.0036   12.1999 N   0  0  0  0  0  0  0  0  0  0  0  0
   -5.5190  -14.1554   12.2322 C   0  0  0  0  0  0  0  0  0  0  0  0
   -5.6669  -12.7778   12.2977 C   0  0  0  0  0  0  0  0  0  0  0  0
   -6.9287  -12.2148   12.3148 C   0  0  0  0  0  0  0  0  0  0  0  0
   -8.0575  -13.0115   12.2622 C   0  0  0  0  0  0  0  0  0  0  0  0
  -10.2052  -17.2835   11.5639 C   0  0  0  0  0  0  0  0  0  0  0  0
  -11.2793  -17.2934   12.3424 N   0  0  0  0  0  0  0  0  0  0  0  0
  -12.2331  -18.0951   12.1494 N   0  0  0  0  0  0  0  0  0  0  0  0
  -12.2245  -18.9733   11.1657 C   0  0  0  0  0  0  0  0  0  0  0  0
  -10.6424  -18.5894   10.4188 S   0  0  0  0  0  0  0  0  0  0  0  0
  -13.2542  -20.0026   10.7771 C   0  0  0  0  0  0  0  0  0  0  0  0
  -14.4075  -19.3584   10.3172 F   0  0  0  0  0  0  0  0  0  0  0  0
  -12.7393  -20.8177    9.7638 F   0  0  0  0  0  0  0  0  0  0  0  0
  -13.5710  -20.7880   11.8907 F   0  0  0  0  0  0  0  0  0  0  0  0
  1  2  1  0
  1 13  1  0
  2  3  2  0
  2  4  1  0
  4  5  2  0
  4 12  1  0
  5  6  1  0
  5  9  1  0
  6  7  2  0
  7  8  1  0
  8  9  1  0
  9 10  2  0
 10 11  1  0
 11 12  2  0
 13 14  2  0
 13 17  1  0
 14 15  1  0
 15 16  2  0
 16 17  1  0
 16 18  1  0
 18 19  1  0
 18 20  1  0
 18 21  1  0
M  END
>  <Gold.Gold.Protein.RotatedWaterAtoms>  (330) 


>  <Gold.Id.Protein>  (330) 


>  <Gold.PLP.Chemscore.CHOScore>  (330) 
0.0000

>  <Gold.PLP.Chemscore.Hbond>  (330) 
2.1936

>  <Gold.PLP.Chemscore.Internal.Correction>  (330) 
0.0003

>  <Gold.PLP.Chemscore.Metal>  (330) 
0.0000

>  <Gold.PLP.Fitness>  (330) 
55.2904

>  <Gold.PLP.PLP>  (330) 
-49.8250

>  <Gold.PLP.ligand.clash>  (330) 
0.0000

>  <Gold.PLP.ligand.torsion>  (330) 
0.5579

>  <Gold.PLP.part.buried>  (330) 
-4.7019

>  <Gold.PLP.part.hbond>  (330) 
-7.2231

>  <Gold.PLP.part.metal>  (330) 
0.0000

>  <Gold.PLP.part.nonpolar>  (330) 
-39.4104

>  <Gold.PLP.part.repulsive>  (330) 
1.4655

>  <Gold.Protein.RotatedAtoms>  (330) 


>  <Gold.Protein.RotatedTorsions>  (330) 


>  <Gold.Protein.RotatedWaterAtoms>  (330) 


>  <Gold.Version>  (330) 
5.3.0

>  <PLP.Chemscore.CHOScore>  (330) 


>  <PLP.Chemscore.Hbond>  (330) 


>  <PLP.Chemscore.Internal.Correction>  (330) 


>  <PLP.Chemscore.Metal>  (330) 


>  <PLP.Fitness>  (330) 


>  <PLP.PLP>  (330) 


>  <PLP.ligand.clash>  (330) 


>  <PLP.ligand.torsion>  (330) 


>  <PLP.part.buried>  (330) 


>  <PLP.part.hbond>  (330) 


>  <PLP.part.metal>  (330) 


>  <PLP.part.nonpolar>  (330) 


>  <PLP.part.repulsive>  (330) 


>  <Version>  (330) 


$$$$
3330|Compound_2061|Compounds_3D_F|sdf|596|dock3|1
     RDKit          3D

 21 23  0  0  0  0  0  0  0  0999 V2000
   -9.1432  -16.6527   11.4849 N   0  0  0  0  0  0  0  0  0  0  0  0
   -9.2042  -15.4649   12.1194 C   0  0  0  0  0  0  0  0  0  0  0  0
  -10.2494  -15.0960   12.6198 O   0  0  0  0  0  0  0  0  0  0  0  0
   -8.0037  -14.6142   12.2064 C   0  0  0  0  0  0  0  0  0  0  0  0
   -6.7184  -15.1938   12.1739 C   0  0  0  0  0  0  0  0  0  0  0  0
   -6.2731  -16.4621   12.0734 N   0  0  0  0  0  0  0  0  0  0  0  0
   -4.9703  -16.4744   12.0882 C   0  0  0  0  0  0  0  0  0  0  0  0
   -4.4942  -15.2074   12.2011 N   0  0  0  0  0  0  0  0  0  0  0  0
   -5.5869  -14.3645   12.2579 C   0  0  0  0  0  0  0  0  0  0  0  0
   -5.7400  -12.9906   12.3707 C   0  0  0  0  0  0  0  0  0  0  0  0
   -7.0038  -12.4328   12.4016 C   0  0  0  0  0  0  0  0  0  0  0  0
   -8.1295  -13.2310   12.3160 C   0  0  0  0  0  0  0  0  0  0  0  0
  -10.2759  -17.4532   11.3981 C   0  0  0  0  0  0  0  0  0  0  0  0
  -11.2880  -17.5939   12.2441 N   0  0  0  0  0  0  0  0  0  0  0  0
  -12.2499  -18.3736   12.0062 N   0  0  0  0  0  0  0  0  0  0  0  0
  -12.3116  -19.0979   10.9059 C   0  0  0  0  0  0  0  0  0  0  0  0
  -10.7922  -18.5838   10.1087 S   0  0  0  0  0  0  0  0  0  0  0  0
  -13.3629  -20.0752   10.4473 C   0  0  0  0  0  0  0  0  0  0  0  0
  -14.5585  -19.3926   10.2000 F   0  0  0  0  0  0  0  0  0  0  0  0
  -12.9339  -20.7050    9.2743 F   0  0  0  0  0  0  0  0  0  0  0  0
  -13.5713  -21.0362   11.4424 F   0  0  0  0  0  0  0  0  0  0  0  0
  1  2  1  0
  1 13  1  0
  2  3  2  0
  2  4  1  0
  4  5  2  0
  4 12  1  0
  5  6  1  0
  5  9  1  0
  6  7  2  0
  7  8  1  0
  8  9  1  0
  9 10  2  0
 10 11  1  0
 11 12  2  0
 13 14  2  0
 13 17  1  0
 14 15  1  0
 15 16  2  0
 16 17  1  0
 16 18  1  0
 18 19  1  0
 18 20  1  0
 18 21  1  0
M  END
>  <Gold.Gold.Protein.RotatedWaterAtoms>  (331) 


>  <Gold.Id.Protein>  (331) 


>  <Gold.PLP.Chemscore.CHOScore>  (331) 
0.0000

>  <Gold.PLP.Chemscore.Hbond>  (331) 
2.6175

>  <Gold.PLP.Chemscore.Internal.Correction>  (331) 
0.0003

>  <Gold.PLP.Chemscore.Metal>  (331) 
0.0000

>  <Gold.PLP.Fitness>  (331) 
55.1555

>  <Gold.PLP.PLP>  (331) 
-48.5735

>  <Gold.PLP.ligand.clash>  (331) 
0.0000

>  <Gold.PLP.ligand.torsion>  (331) 
0.6354

>  <Gold.PLP.part.buried>  (331) 
-5.6376

>  <Gold.PLP.part.hbond>  (331) 
-6.0775

>  <Gold.PLP.part.metal>  (331) 
0.0000

>  <Gold.PLP.part.nonpolar>  (331) 
-38.8232

>  <Gold.PLP.part.repulsive>  (331) 
1.6567

>  <Gold.Protein.RotatedAtoms>  (331) 


>  <Gold.Protein.RotatedTorsions>  (331) 


>  <Gold.Protein.RotatedWaterAtoms>  (331) 


>  <Gold.Version>  (331) 
5.3.0

>  <PLP.Chemscore.CHOScore>  (331) 


>  <PLP.Chemscore.Hbond>  (331) 


>  <PLP.Chemscore.Internal.Correction>  (331) 


>  <PLP.Chemscore.Metal>  (331) 


>  <PLP.Fitness>  (331) 


>  <PLP.PLP>  (331) 


>  <PLP.ligand.clash>  (331) 


>  <PLP.ligand.torsion>  (331) 


>  <PLP.part.buried>  (331) 


>  <PLP.part.hbond>  (331) 


>  <PLP.part.metal>  (331) 


>  <PLP.part.nonpolar>  (331) 


>  <PLP.part.repulsive>  (331) 


>  <Version>  (331) 


$$$$
3331|Compound_2061|Compounds_3D_F|sdf|596|dock4|1
     RDKit          3D

 21 23  0  0  0  0  0  0  0  0999 V2000
   -9.0253  -16.8187   11.6065 N   0  0  0  0  0  0  0  0  0  0  0  0
   -9.1040  -15.5885   12.1519 C   0  0  0  0  0  0  0  0  0  0  0  0
  -10.1620  -15.1883   12.5986 O   0  0  0  0  0  0  0  0  0  0  0  0
   -7.9075  -14.7294   12.2067 C   0  0  0  0  0  0  0  0  0  0  0  0
   -6.6194  -15.3028   12.1777 C   0  0  0  0  0  0  0  0  0  0  0  0
   -6.1679  -16.5708   12.1055 N   0  0  0  0  0  0  0  0  0  0  0  0
   -4.8650  -16.5758   12.1093 C   0  0  0  0  0  0  0  0  0  0  0  0
   -4.3950  -15.3038   12.1857 N   0  0  0  0  0  0  0  0  0  0  0  0
   -5.4919  -14.4656   12.2307 C   0  0  0  0  0  0  0  0  0  0  0  0
   -5.6516  -13.0901   12.3099 C   0  0  0  0  0  0  0  0  0  0  0  0
   -6.9182  -12.5384   12.3377 C   0  0  0  0  0  0  0  0  0  0  0  0
   -8.0402  -13.3446   12.2823 C   0  0  0  0  0  0  0  0  0  0  0  0
  -10.1539  -17.6274   11.5498 C   0  0  0  0  0  0  0  0  0  0  0  0
  -11.2673  -17.5899   12.2701 N   0  0  0  0  0  0  0  0  0  0  0  0
  -12.2072  -18.4096   12.0846 N   0  0  0  0  0  0  0  0  0  0  0  0
  -12.1444  -19.3546   11.1668 C   0  0  0  0  0  0  0  0  0  0  0  0
  -10.5265  -19.0132   10.4782 S   0  0  0  0  0  0  0  0  0  0  0  0
  -13.1491  -20.4154   10.7985 C   0  0  0  0  0  0  0  0  0  0  0  0
  -13.4412  -21.1925   11.9243 F   0  0  0  0  0  0  0  0  0  0  0  0
  -14.3202  -19.8074   10.3346 F   0  0  0  0  0  0  0  0  0  0  0  0
  -12.6182  -21.2310    9.7934 F   0  0  0  0  0  0  0  0  0  0  0  0
  1  2  1  0
  1 13  1  0
  2  3  2  0
  2  4  1  0
  4  5  2  0
  4 12  1  0
  5  6  1  0
  5  9  1  0
  6  7  2  0
  7  8  1  0
  8  9  1  0
  9 10  2  0
 10 11  1  0
 11 12  2  0
 13 14  2  0
 13 17  1  0
 14 15  1  0
 15 16  2  0
 16 17  1  0
 16 18  1  0
 18 19  1  0
 18 20  1  0
 18 21  1  0
M  END
>  <Gold.Gold.Protein.RotatedWaterAtoms>  (332) 


>  <Gold.Id.Protein>  (332) 


>  <Gold.PLP.Chemscore.CHOScore>  (332) 
0.0000

>  <Gold.PLP.Chemscore.Hbond>  (332) 
2.3835

>  <Gold.PLP.Chemscore.Internal.Correction>  (332) 
0.0003

>  <Gold.PLP.Chemscore.Metal>  (332) 
0.0000

>  <Gold.PLP.Fitness>  (332) 
54.3488

>  <Gold.PLP.PLP>  (332) 
-47.9421

>  <Gold.PLP.ligand.clash>  (332) 
0.0000

>  <Gold.PLP.ligand.torsion>  (332) 
0.3720

>  <Gold.PLP.part.buried>  (332) 
-7.3280

>  <Gold.PLP.part.hbond>  (332) 
-5.6587

>  <Gold.PLP.part.metal>  (332) 
0.0000

>  <Gold.PLP.part.nonpolar>  (332) 
-37.4578

>  <Gold.PLP.part.repulsive>  (332) 
1.7465

>  <Gold.Protein.RotatedAtoms>  (332) 


>  <Gold.Protein.RotatedTorsions>  (332) 


>  <Gold.Protein.RotatedWaterAtoms>  (332) 


>  <Gold.Version>  (332) 
5.3.0

>  <PLP.Chemscore.CHOScore>  (332) 


>  <PLP.Chemscore.Hbond>  (332) 


>  <PLP.Chemscore.Internal.Correction>  (332) 


>  <PLP.Chemscore.Metal>  (332) 


>  <PLP.Fitness>  (332) 


>  <PLP.PLP>  (332) 


>  <PLP.ligand.clash>  (332) 


>  <PLP.ligand.torsion>  (332) 


>  <PLP.part.buried>  (332) 


>  <PLP.part.hbond>  (332) 


>  <PLP.part.metal>  (332) 


>  <PLP.part.nonpolar>  (332) 


>  <PLP.part.repulsive>  (332) 


>  <Version>  (332) 


$$$$
3332|Compound_2061|Compounds_3D_F|sdf|596|dock5|1
     RDKit          3D

 21 23  0  0  0  0  0  0  0  0999 V2000
   -9.1697  -16.5936   11.2853 N   0  0  0  0  0  0  0  0  0  0  0  0
   -9.2539  -15.4739   12.0312 C   0  0  0  0  0  0  0  0  0  0  0  0
  -10.2896  -15.2051   12.6092 O   0  0  0  0  0  0  0  0  0  0  0  0
   -8.0905  -14.5762   12.1456 C   0  0  0  0  0  0  0  0  0  0  0  0
   -6.7827  -15.1041   12.1414 C   0  0  0  0  0  0  0  0  0  0  0  0
   -6.2851  -16.3535   12.0501 N   0  0  0  0  0  0  0  0  0  0  0  0
   -4.9835  -16.3140   12.0941 C   0  0  0  0  0  0  0  0  0  0  0  0
   -4.5609  -15.0292   12.2184 N   0  0  0  0  0  0  0  0  0  0  0  0
   -5.6874  -14.2306   12.2514 C   0  0  0  0  0  0  0  0  0  0  0  0
   -5.8976  -12.8640   12.3617 C   0  0  0  0  0  0  0  0  0  0  0  0
   -7.1830  -12.3570   12.3647 C   0  0  0  0  0  0  0  0  0  0  0  0
   -8.2738  -13.1993   12.2533 C   0  0  0  0  0  0  0  0  0  0  0  0
  -10.2676  -17.4380   11.1728 C   0  0  0  0  0  0  0  0  0  0  0  0
  -11.0892  -17.8982   12.1072 N   0  0  0  0  0  0  0  0  0  0  0  0
  -12.0501  -18.6655   11.8284 N   0  0  0  0  0  0  0  0  0  0  0  0
  -12.2993  -19.0598   10.5948 C   0  0  0  0  0  0  0  0  0  0  0  0
  -10.9846  -18.2098    9.7244 S   0  0  0  0  0  0  0  0  0  0  0  0
  -13.3837  -19.9631   10.0670 C   0  0  0  0  0  0  0  0  0  0  0  0
  -12.8046  -21.0396    9.3873 F   0  0  0  0  0  0  0  0  0  0  0  0
  -14.1508  -20.4429   11.1337 F   0  0  0  0  0  0  0  0  0  0  0  0
  -14.2033  -19.2440    9.1904 F   0  0  0  0  0  0  0  0  0  0  0  0
  1  2  1  0
  1 13  1  0
  2  3  2  0
  2  4  1  0
  4  5  2  0
  4 12  1  0
  5  6  1  0
  5  9  1  0
  6  7  2  0
  7  8  1  0
  8  9  1  0
  9 10  2  0
 10 11  1  0
 11 12  2  0
 13 14  2  0
 13 17  1  0
 14 15  1  0
 15 16  2  0
 16 17  1  0
 16 18  1  0
 18 19  1  0
 18 20  1  0
 18 21  1  0
M  END
>  <Gold.Gold.Protein.RotatedWaterAtoms>  (333) 


>  <Gold.Id.Protein>  (333) 


>  <Gold.PLP.Chemscore.CHOScore>  (333) 
0.0000

>  <Gold.PLP.Chemscore.Hbond>  (333) 
2.5686

>  <Gold.PLP.Chemscore.Internal.Correction>  (333) 
0.0003

>  <Gold.PLP.Chemscore.Metal>  (333) 
0.0000

>  <Gold.PLP.Fitness>  (333) 
55.4526

>  <Gold.PLP.PLP>  (333) 
-49.5077

>  <Gold.PLP.ligand.clash>  (333) 
0.0000

>  <Gold.PLP.ligand.torsion>  (333) 
0.8806

>  <Gold.PLP.part.buried>  (333) 
-4.6435

>  <Gold.PLP.part.hbond>  (333) 
-5.9313

>  <Gold.PLP.part.metal>  (333) 
0.0000

>  <Gold.PLP.part.nonpolar>  (333) 
-41.2665

>  <Gold.PLP.part.repulsive>  (333) 
1.4960

>  <Gold.Protein.RotatedAtoms>  (333) 


>  <Gold.Protein.RotatedTorsions>  (333) 


>  <Gold.Protein.RotatedWaterAtoms>  (333) 


>  <Gold.Version>  (333) 
5.3.0

>  <PLP.Chemscore.CHOScore>  (333) 


>  <PLP.Chemscore.Hbond>  (333) 


>  <PLP.Chemscore.Internal.Correction>  (333) 


>  <PLP.Chemscore.Metal>  (333) 


>  <PLP.Fitness>  (333) 


>  <PLP.PLP>  (333) 


>  <PLP.ligand.clash>  (333) 


>  <PLP.ligand.torsion>  (333) 


>  <PLP.part.buried>  (333) 


>  <PLP.part.hbond>  (333) 


>  <PLP.part.metal>  (333) 


>  <PLP.part.nonpolar>  (333) 


>  <PLP.part.repulsive>  (333) 


>  <Version>  (333) 


$$$$
3333|Compound_2061|Compounds_3D_F|sdf|596|dock6|1
     RDKit          3D

 21 23  0  0  0  0  0  0  0  0999 V2000
   -8.9350  -16.7277   11.5919 N   0  0  0  0  0  0  0  0  0  0  0  0
   -9.0271  -15.4506   12.0135 C   0  0  0  0  0  0  0  0  0  0  0  0
  -10.1159  -14.9706   12.2651 O   0  0  0  0  0  0  0  0  0  0  0  0
   -7.8081  -14.6369   12.1692 C   0  0  0  0  0  0  0  0  0  0  0  0
   -6.5370  -15.2467   12.1296 C   0  0  0  0  0  0  0  0  0  0  0  0
   -6.1212  -16.5188   11.9689 N   0  0  0  0  0  0  0  0  0  0  0  0
   -4.8197  -16.5653   12.0077 C   0  0  0  0  0  0  0  0  0  0  0  0
   -4.3149  -15.3189   12.1982 N   0  0  0  0  0  0  0  0  0  0  0  0
   -5.3875  -14.4525   12.2800 C   0  0  0  0  0  0  0  0  0  0  0  0
   -5.5089  -13.0832   12.4644 C   0  0  0  0  0  0  0  0  0  0  0  0
   -6.7590  -12.4955   12.5016 C   0  0  0  0  0  0  0  0  0  0  0  0
   -7.9020  -13.2588   12.3514 C   0  0  0  0  0  0  0  0  0  0  0  0
  -10.0842  -17.4940   11.4399 C   0  0  0  0  0  0  0  0  0  0  0  0
  -11.1520  -17.5947   12.2207 N   0  0  0  0  0  0  0  0  0  0  0  0
  -12.1207  -18.3471   11.9288 N   0  0  0  0  0  0  0  0  0  0  0  0
  -12.1349  -19.0810   10.8331 C   0  0  0  0  0  0  0  0  0  0  0  0
  -10.5526  -18.6221   10.1301 S   0  0  0  0  0  0  0  0  0  0  0  0
  -13.1849  -20.0305   10.3169 C   0  0  0  0  0  0  0  0  0  0  0  0
  -14.3603  -19.3230   10.0441 F   0  0  0  0  0  0  0  0  0  0  0  0
  -12.7254  -20.6415    9.1455 F   0  0  0  0  0  0  0  0  0  0  0  0
  -13.4428  -21.0095   11.2824 F   0  0  0  0  0  0  0  0  0  0  0  0
  1  2  1  0
  1 13  1  0
  2  3  2  0
  2  4  1  0
  4  5  2  0
  4 12  1  0
  5  6  1  0
  5  9  1  0
  6  7  2  0
  7  8  1  0
  8  9  1  0
  9 10  2  0
 10 11  1  0
 11 12  2  0
 13 14  2  0
 13 17  1  0
 14 15  1  0
 15 16  2  0
 16 17  1  0
 16 18  1  0
 18 19  1  0
 18 20  1  0
 18 21  1  0
M  END
>  <Gold.Gold.Protein.RotatedWaterAtoms>  (334) 


>  <Gold.Id.Protein>  (334) 


>  <Gold.PLP.Chemscore.CHOScore>  (334) 
0.0000

>  <Gold.PLP.Chemscore.Hbond>  (334) 
2.1245

>  <Gold.PLP.Chemscore.Internal.Correction>  (334) 
0.0003

>  <Gold.PLP.Chemscore.Metal>  (334) 
0.0000

>  <Gold.PLP.Fitness>  (334) 
55.6972

>  <Gold.PLP.PLP>  (334) 
-50.2192

>  <Gold.PLP.ligand.clash>  (334) 
0.0000

>  <Gold.PLP.ligand.torsion>  (334) 
0.4479

>  <Gold.PLP.part.buried>  (334) 
-7.3579

>  <Gold.PLP.part.hbond>  (334) 
-4.2597

>  <Gold.PLP.part.metal>  (334) 
0.0000

>  <Gold.PLP.part.nonpolar>  (334) 
-39.6872

>  <Gold.PLP.part.repulsive>  (334) 
0.4019

>  <Gold.Protein.RotatedAtoms>  (334) 


>  <Gold.Protein.RotatedTorsions>  (334) 


>  <Gold.Protein.RotatedWaterAtoms>  (334) 


>  <Gold.Version>  (334) 
5.3.0

>  <PLP.Chemscore.CHOScore>  (334) 


>  <PLP.Chemscore.Hbond>  (334) 


>  <PLP.Chemscore.Internal.Correction>  (334) 


>  <PLP.Chemscore.Metal>  (334) 


>  <PLP.Fitness>  (334) 


>  <PLP.PLP>  (334) 


>  <PLP.ligand.clash>  (334) 


>  <PLP.ligand.torsion>  (334) 


>  <PLP.part.buried>  (334) 


>  <PLP.part.hbond>  (334) 


>  <PLP.part.metal>  (334) 


>  <PLP.part.nonpolar>  (334) 


>  <PLP.part.repulsive>  (334) 


>  <Version>  (334) 


$$$$
3334|Compound_2061|Compounds_3D_F|sdf|596|dock7|1
     RDKit          3D

 21 23  0  0  0  0  0  0  0  0999 V2000
   -9.1050  -16.6344   11.3551 N   0  0  0  0  0  0  0  0  0  0  0  0
   -9.1818  -15.5077   12.0911 C   0  0  0  0  0  0  0  0  0  0  0  0
  -10.2156  -15.2271   12.6670 O   0  0  0  0  0  0  0  0  0  0  0  0
   -8.0127  -14.6165   12.1973 C   0  0  0  0  0  0  0  0  0  0  0  0
   -6.7075  -15.1496   12.1619 C   0  0  0  0  0  0  0  0  0  0  0  0
   -6.2171  -16.3996   12.0436 N   0  0  0  0  0  0  0  0  0  0  0  0
   -4.9147  -16.3661   12.0647 C   0  0  0  0  0  0  0  0  0  0  0  0
   -4.4843  -15.0849   12.1998 N   0  0  0  0  0  0  0  0  0  0  0  0
   -5.6066  -14.2823   12.2645 C   0  0  0  0  0  0  0  0  0  0  0  0
   -5.8087  -12.9166   12.3983 C   0  0  0  0  0  0  0  0  0  0  0  0
   -7.0916  -12.4044   12.4318 C   0  0  0  0  0  0  0  0  0  0  0  0
   -8.1880  -13.2405   12.3281 C   0  0  0  0  0  0  0  0  0  0  0  0
  -10.2084  -17.4727   11.2503 C   0  0  0  0  0  0  0  0  0  0  0  0
  -11.0005  -17.9624   12.1951 N   0  0  0  0  0  0  0  0  0  0  0  0
  -11.9721  -18.7183   11.9223 N   0  0  0  0  0  0  0  0  0  0  0  0
  -12.2622  -19.0708   10.6850 C   0  0  0  0  0  0  0  0  0  0  0  0
  -10.9741  -18.1946    9.8011 S   0  0  0  0  0  0  0  0  0  0  0  0
  -13.3657  -19.9541   10.1630 C   0  0  0  0  0  0  0  0  0  0  0  0
  -14.2054  -19.2085    9.3291 F   0  0  0  0  0  0  0  0  0  0  0  0
  -12.8110  -21.0145    9.4389 F   0  0  0  0  0  0  0  0  0  0  0  0
  -14.1049  -20.4603   11.2375 F   0  0  0  0  0  0  0  0  0  0  0  0
  1  2  1  0
  1 13  1  0
  2  3  2  0
  2  4  1  0
  4  5  2  0
  4 12  1  0
  5  6  1  0
  5  9  1  0
  6  7  2  0
  7  8  1  0
  8  9  1  0
  9 10  2  0
 10 11  1  0
 11 12  2  0
 13 14  2  0
 13 17  1  0
 14 15  1  0
 15 16  2  0
 16 17  1  0
 16 18  1  0
 18 19  1  0
 18 20  1  0
 18 21  1  0
M  END
>  <Gold.Gold.Protein.RotatedWaterAtoms>  (335) 


>  <Gold.Id.Protein>  (335) 


>  <Gold.PLP.Chemscore.CHOScore>  (335) 
0.0000

>  <Gold.PLP.Chemscore.Hbond>  (335) 
2.8597

>  <Gold.PLP.Chemscore.Internal.Correction>  (335) 
0.0003

>  <Gold.PLP.Chemscore.Metal>  (335) 
0.0000

>  <Gold.PLP.Fitness>  (335) 
55.8093

>  <Gold.PLP.PLP>  (335) 
-48.9756

>  <Gold.PLP.ligand.clash>  (335) 
0.0000

>  <Gold.PLP.ligand.torsion>  (335) 
0.8728

>  <Gold.PLP.part.buried>  (335) 
-5.1842

>  <Gold.PLP.part.hbond>  (335) 
-5.8940

>  <Gold.PLP.part.metal>  (335) 
0.0000

>  <Gold.PLP.part.nonpolar>  (335) 
-41.0831

>  <Gold.PLP.part.repulsive>  (335) 
2.0039

>  <Gold.Protein.RotatedAtoms>  (335) 


>  <Gold.Protein.RotatedTorsions>  (335) 


>  <Gold.Protein.RotatedWaterAtoms>  (335) 


>  <Gold.Version>  (335) 
5.3.0

>  <PLP.Chemscore.CHOScore>  (335) 


>  <PLP.Chemscore.Hbond>  (335) 


>  <PLP.Chemscore.Internal.Correction>  (335) 


>  <PLP.Chemscore.Metal>  (335) 


>  <PLP.Fitness>  (335) 


>  <PLP.PLP>  (335) 


>  <PLP.ligand.clash>  (335) 


>  <PLP.ligand.torsion>  (335) 


>  <PLP.part.buried>  (335) 


>  <PLP.part.hbond>  (335) 


>  <PLP.part.metal>  (335) 


>  <PLP.part.nonpolar>  (335) 


>  <PLP.part.repulsive>  (335) 


>  <Version>  (335) 


$$$$
3335|Compound_2061|Compounds_3D_F|sdf|596|dock8|1
     RDKit          3D

 21 23  0  0  0  0  0  0  0  0999 V2000
   -9.0438  -16.7816   11.4286 N   0  0  0  0  0  0  0  0  0  0  0  0
   -9.1365  -15.5968   12.0649 C   0  0  0  0  0  0  0  0  0  0  0  0
  -10.2020  -15.2372   12.5278 O   0  0  0  0  0  0  0  0  0  0  0  0
   -7.9461  -14.7381   12.1991 C   0  0  0  0  0  0  0  0  0  0  0  0
   -6.6544  -15.3026   12.1564 C   0  0  0  0  0  0  0  0  0  0  0  0
   -6.1946  -16.5611   12.0087 N   0  0  0  0  0  0  0  0  0  0  0  0
   -4.8920  -16.5607   12.0367 C   0  0  0  0  0  0  0  0  0  0  0  0
   -4.4306  -15.2945   12.2062 N   0  0  0  0  0  0  0  0  0  0  0  0
   -5.5328  -14.4660   12.2861 C   0  0  0  0  0  0  0  0  0  0  0  0
   -5.7016  -13.0995   12.4534 C   0  0  0  0  0  0  0  0  0  0  0  0
   -6.9716  -12.5564   12.4939 C   0  0  0  0  0  0  0  0  0  0  0  0
   -8.0878  -13.3619   12.3640 C   0  0  0  0  0  0  0  0  0  0  0  0
  -10.1668  -17.5896   11.2972 C   0  0  0  0  0  0  0  0  0  0  0  0
  -11.1135  -17.8844   12.1784 N   0  0  0  0  0  0  0  0  0  0  0  0
  -12.0773  -18.6443   11.8897 N   0  0  0  0  0  0  0  0  0  0  0  0
  -12.2058  -19.1942   10.6979 C   0  0  0  0  0  0  0  0  0  0  0  0
  -10.7557  -18.5243    9.8876 S   0  0  0  0  0  0  0  0  0  0  0  0
  -13.2713  -20.1182   10.1673 C   0  0  0  0  0  0  0  0  0  0  0  0
  -14.4889  -19.4335   10.0947 F   0  0  0  0  0  0  0  0  0  0  0  0
  -12.9094  -20.5631    8.8916 F   0  0  0  0  0  0  0  0  0  0  0  0
  -13.4039  -21.2167   11.0234 F   0  0  0  0  0  0  0  0  0  0  0  0
  1  2  1  0
  1 13  1  0
  2  3  2  0
  2  4  1  0
  4  5  2  0
  4 12  1  0
  5  6  1  0
  5  9  1  0
  6  7  2  0
  7  8  1  0
  8  9  1  0
  9 10  2  0
 10 11  1  0
 11 12  2  0
 13 14  2  0
 13 17  1  0
 14 15  1  0
 15 16  2  0
 16 17  1  0
 16 18  1  0
 18 19  1  0
 18 20  1  0
 18 21  1  0
M  END
>  <Gold.Gold.Protein.RotatedWaterAtoms>  (336) 


>  <Gold.Id.Protein>  (336) 


>  <Gold.PLP.Chemscore.CHOScore>  (336) 
0.0000

>  <Gold.PLP.Chemscore.Hbond>  (336) 
2.6469

>  <Gold.PLP.Chemscore.Internal.Correction>  (336) 
0.0003

>  <Gold.PLP.Chemscore.Metal>  (336) 
0.0000

>  <Gold.PLP.Fitness>  (336) 
55.4972

>  <Gold.PLP.PLP>  (336) 
-49.0341

>  <Gold.PLP.ligand.clash>  (336) 
0.0000

>  <Gold.PLP.ligand.torsion>  (336) 
0.7389

>  <Gold.PLP.part.buried>  (336) 
-7.1643

>  <Gold.PLP.part.hbond>  (336) 
-5.3849

>  <Gold.PLP.part.metal>  (336) 
0.0000

>  <Gold.PLP.part.nonpolar>  (336) 
-39.3572

>  <Gold.PLP.part.repulsive>  (336) 
1.2174

>  <Gold.Protein.RotatedAtoms>  (336) 


>  <Gold.Protein.RotatedTorsions>  (336) 


>  <Gold.Protein.RotatedWaterAtoms>  (336) 


>  <Gold.Version>  (336) 
5.3.0

>  <PLP.Chemscore.CHOScore>  (336) 


>  <PLP.Chemscore.Hbond>  (336) 


>  <PLP.Chemscore.Internal.Correction>  (336) 


>  <PLP.Chemscore.Metal>  (336) 


>  <PLP.Fitness>  (336) 


>  <PLP.PLP>  (336) 


>  <PLP.ligand.clash>  (336) 


>  <PLP.ligand.torsion>  (336) 


>  <PLP.part.buried>  (336) 


>  <PLP.part.hbond>  (336) 


>  <PLP.part.metal>  (336) 


>  <PLP.part.nonpolar>  (336) 


>  <PLP.part.repulsive>  (336) 


>  <Version>  (336) 


$$$$
3336|Compound_2061|Compounds_3D_F|sdf|596|dock9|1
     RDKit          3D

 21 23  0  0  0  0  0  0  0  0999 V2000
   -8.9893  -16.4784   11.7350 N   0  0  0  0  0  0  0  0  0  0  0  0
   -8.9882  -15.1355   11.6178 C   0  0  0  0  0  0  0  0  0  0  0  0
   -9.9968  -14.5555   11.2637 O   0  0  0  0  0  0  0  0  0  0  0  0
   -7.7646  -14.3711   11.9192 C   0  0  0  0  0  0  0  0  0  0  0  0
   -6.5123  -15.0190   11.9524 C   0  0  0  0  0  0  0  0  0  0  0  0
   -6.1200  -16.2938   11.7573 N   0  0  0  0  0  0  0  0  0  0  0  0
   -4.8283  -16.3845   11.9021 C   0  0  0  0  0  0  0  0  0  0  0  0
   -4.3069  -15.1668   12.2021 N   0  0  0  0  0  0  0  0  0  0  0  0
   -5.3580  -14.2715   12.2415 C   0  0  0  0  0  0  0  0  0  0  0  0
   -5.4563  -12.9104   12.4899 C   0  0  0  0  0  0  0  0  0  0  0  0
   -6.6881  -12.2853   12.4548 C   0  0  0  0  0  0  0  0  0  0  0  0
   -7.8351  -13.0021   12.1682 C   0  0  0  0  0  0  0  0  0  0  0  0
  -10.1411  -17.2004   11.4462 C   0  0  0  0  0  0  0  0  0  0  0  0
  -11.1422  -17.5621   12.2379 N   0  0  0  0  0  0  0  0  0  0  0  0
  -12.1252  -18.2234   11.8069 N   0  0  0  0  0  0  0  0  0  0  0  0
  -12.2214  -18.5982   10.5461 C   0  0  0  0  0  0  0  0  0  0  0  0
  -10.7039  -17.9017    9.8974 S   0  0  0  0  0  0  0  0  0  0  0  0
  -13.3019  -19.3834    9.8487 C   0  0  0  0  0  0  0  0  0  0  0  0
  -12.7354  -20.4917    9.2105 F   0  0  0  0  0  0  0  0  0  0  0  0
  -14.2434  -19.8166   10.7880 F   0  0  0  0  0  0  0  0  0  0  0  0
  -13.9307  -18.5696    8.9002 F   0  0  0  0  0  0  0  0  0  0  0  0
  1  2  1  0
  1 13  1  0
  2  3  2  0
  2  4  1  0
  4  5  2  0
  4 12  1  0
  5  6  1  0
  5  9  1  0
  6  7  2  0
  7  8  1  0
  8  9  1  0
  9 10  2  0
 10 11  1  0
 11 12  2  0
 13 14  2  0
 13 17  1  0
 14 15  1  0
 15 16  2  0
 16 17  1  0
 16 18  1  0
 18 19  1  0
 18 20  1  0
 18 21  1  0
M  END
>  <Gold.Gold.Protein.RotatedWaterAtoms>  (337) 


>  <Gold.Id.Protein>  (337) 


>  <Gold.PLP.Chemscore.CHOScore>  (337) 
0.0000

>  <Gold.PLP.Chemscore.Hbond>  (337) 
2.1362

>  <Gold.PLP.Chemscore.Internal.Correction>  (337) 
0.0003

>  <Gold.PLP.Chemscore.Metal>  (337) 
0.0000

>  <Gold.PLP.Fitness>  (337) 
54.9001

>  <Gold.PLP.PLP>  (337) 
-50.4449

>  <Gold.PLP.ligand.clash>  (337) 
0.0000

>  <Gold.PLP.ligand.torsion>  (337) 
0.9768

>  <Gold.PLP.part.buried>  (337) 
-3.2056

>  <Gold.PLP.part.hbond>  (337) 
-2.5123

>  <Gold.PLP.part.metal>  (337) 
0.0000

>  <Gold.PLP.part.nonpolar>  (337) 
-44.5765

>  <Gold.PLP.part.repulsive>  (337) 
0.4360

>  <Gold.Protein.RotatedAtoms>  (337) 


>  <Gold.Protein.RotatedTorsions>  (337) 


>  <Gold.Protein.RotatedWaterAtoms>  (337) 


>  <Gold.Version>  (337) 
5.3.0

>  <PLP.Chemscore.CHOScore>  (337) 


>  <PLP.Chemscore.Hbond>  (337) 


>  <PLP.Chemscore.Internal.Correction>  (337) 


>  <PLP.Chemscore.Metal>  (337) 


>  <PLP.Fitness>  (337) 


>  <PLP.PLP>  (337) 


>  <PLP.ligand.clash>  (337) 


>  <PLP.ligand.torsion>  (337) 


>  <PLP.part.buried>  (337) 


>  <PLP.part.hbond>  (337) 


>  <PLP.part.metal>  (337) 


>  <PLP.part.nonpolar>  (337) 


>  <PLP.part.repulsive>  (337) 


>  <Version>  (337) 


$$$$
3337|Compound_2064|Compounds_3D_F|sdf|597|dock1|1
     RDKit          3D

 21 23  0  0  0  0  0  0  0  0999 V2000
   -8.9232  -17.9910   11.5806 N   0  0  0  0  0  0  0  0  0  0  0  0
   -8.4373  -16.7424   11.7286 C   0  0  0  0  0  0  0  0  0  0  0  0
   -9.1957  -15.7917   11.7338 O   0  0  0  0  0  0  0  0  0  0  0  0
   -6.9870  -16.5303   11.8840 C   0  0  0  0  0  0  0  0  0  0  0  0
   -6.4773  -15.2322   12.0938 C   0  0  0  0  0  0  0  0  0  0  0  0
   -7.0477  -14.0152   12.1967 N   0  0  0  0  0  0  0  0  0  0  0  0
   -6.1285  -13.1127   12.3923 C   0  0  0  0  0  0  0  0  0  0  0  0
   -4.9028  -13.6968   12.4279 N   0  0  0  0  0  0  0  0  0  0  0  0
   -5.0912  -15.0521   12.2397 C   0  0  0  0  0  0  0  0  0  0  0  0
   -4.2388  -16.1445   12.1768 C   0  0  0  0  0  0  0  0  0  0  0  0
   -4.7485  -17.4124   11.9720 C   0  0  0  0  0  0  0  0  0  0  0  0
   -6.1087  -17.6105   11.8303 C   0  0  0  0  0  0  0  0  0  0  0  0
  -10.2943  -18.1923   11.4285 C   0  0  0  0  0  0  0  0  0  0  0  0
  -11.2483  -17.6913   12.1678 N   0  0  0  0  0  0  0  0  0  0  0  0
  -12.3383  -18.0494   11.7860 O   0  0  0  0  0  0  0  0  0  0  0  0
  -12.2515  -18.8555   10.7185 C   0  0  0  0  0  0  0  0  0  0  0  0
  -10.9344  -18.9801   10.4345 C   0  0  0  0  0  0  0  0  0  0  0  0
  -13.3966  -19.4922    9.9741 C   0  0  0  0  0  0  0  0  0  0  0  0
  -12.8473  -20.4775    8.9396 C   0  0  0  0  0  0  0  0  0  0  0  0
  -14.2942  -20.2397   10.9636 C   0  0  0  0  0  0  0  0  0  0  0  0
  -14.2103  -18.4084    9.2656 C   0  0  0  0  0  0  0  0  0  0  0  0
  1  2  1  0
  1 13  1  0
  2  3  2  0
  2  4  1  0
  4  5  2  0
  4 12  1  0
  5  6  1  0
  5  9  1  0
  6  7  2  0
  7  8  1  0
  8  9  1  0
  9 10  2  0
 10 11  1  0
 11 12  2  0
 13 14  2  0
 13 17  1  0
 14 15  1  0
 15 16  1  0
 16 17  2  0
 16 18  1  0
 18 19  1  0
 18 20  1  0
 18 21  1  0
M  END
>  <Gold.Gold.Protein.RotatedWaterAtoms>  (338) 


>  <Gold.Id.Protein>  (338) 


>  <Gold.PLP.Chemscore.CHOScore>  (338) 
0.0000

>  <Gold.PLP.Chemscore.Hbond>  (338) 
2.5510

>  <Gold.PLP.Chemscore.Internal.Correction>  (338) 
0.0077

>  <Gold.PLP.Chemscore.Metal>  (338) 
0.0000

>  <Gold.PLP.Fitness>  (338) 
58.0624

>  <Gold.PLP.PLP>  (338) 
-51.5878

>  <Gold.PLP.ligand.clash>  (338) 
0.0000

>  <Gold.PLP.ligand.torsion>  (338) 
0.5931

>  <Gold.PLP.part.buried>  (338) 
-8.8790

>  <Gold.PLP.part.hbond>  (338) 
-5.4757

>  <Gold.PLP.part.metal>  (338) 
0.0000

>  <Gold.PLP.part.nonpolar>  (338) 
-39.3308

>  <Gold.PLP.part.repulsive>  (338) 
0.4367

>  <Gold.Protein.RotatedAtoms>  (338) 


>  <Gold.Protein.RotatedTorsions>  (338) 


>  <Gold.Protein.RotatedWaterAtoms>  (338) 


>  <Gold.Version>  (338) 
5.3.0

>  <PLP.Chemscore.CHOScore>  (338) 


>  <PLP.Chemscore.Hbond>  (338) 


>  <PLP.Chemscore.Internal.Correction>  (338) 


>  <PLP.Chemscore.Metal>  (338) 


>  <PLP.Fitness>  (338) 


>  <PLP.PLP>  (338) 


>  <PLP.ligand.clash>  (338) 


>  <PLP.ligand.torsion>  (338) 


>  <PLP.part.buried>  (338) 


>  <PLP.part.hbond>  (338) 


>  <PLP.part.metal>  (338) 


>  <PLP.part.nonpolar>  (338) 


>  <PLP.part.repulsive>  (338) 


>  <Version>  (338) 


$$$$
3338|Compound_2064|Compounds_3D_F|sdf|597|dock2|1
     RDKit          3D

 21 23  0  0  0  0  0  0  0  0999 V2000
   -9.1930  -16.3355   11.7090 N   0  0  0  0  0  0  0  0  0  0  0  0
   -9.2333  -15.0681   12.1663 C   0  0  0  0  0  0  0  0  0  0  0  0
  -10.2819  -14.5990   12.5654 O   0  0  0  0  0  0  0  0  0  0  0  0
   -8.0062  -14.2518   12.1823 C   0  0  0  0  0  0  0  0  0  0  0  0
   -6.7399  -14.8726   12.1865 C   0  0  0  0  0  0  0  0  0  0  0  0
   -6.3352  -16.1584   12.1794 N   0  0  0  0  0  0  0  0  0  0  0  0
   -5.0334  -16.2108   12.1890 C   0  0  0  0  0  0  0  0  0  0  0  0
   -4.5171  -14.9546   12.2025 N   0  0  0  0  0  0  0  0  0  0  0  0
   -5.5825  -14.0757   12.2016 C   0  0  0  0  0  0  0  0  0  0  0  0
   -5.6917  -12.6930   12.2125 C   0  0  0  0  0  0  0  0  0  0  0  0
   -6.9372  -12.0946   12.2072 C   0  0  0  0  0  0  0  0  0  0  0  0
   -8.0870  -12.8609   12.1882 C   0  0  0  0  0  0  0  0  0  0  0  0
  -10.3540  -17.1069   11.6886 C   0  0  0  0  0  0  0  0  0  0  0  0
  -11.3713  -17.0164   12.5041 N   0  0  0  0  0  0  0  0  0  0  0  0
  -12.2296  -17.8234   12.2318 O   0  0  0  0  0  0  0  0  0  0  0  0
  -11.8887  -18.5755   11.1760 C   0  0  0  0  0  0  0  0  0  0  0  0
  -10.6703  -18.1463   10.7731 C   0  0  0  0  0  0  0  0  0  0  0  0
  -12.7053  -19.6781   10.5530 C   0  0  0  0  0  0  0  0  0  0  0  0
  -14.0223  -19.1024   10.0268 C   0  0  0  0  0  0  0  0  0  0  0  0
  -11.9215  -20.2995    9.3941 C   0  0  0  0  0  0  0  0  0  0  0  0
  -12.9998  -20.7506   11.6027 C   0  0  0  0  0  0  0  0  0  0  0  0
  1  2  1  0
  1 13  1  0
  2  3  2  0
  2  4  1  0
  4  5  2  0
  4 12  1  0
  5  6  1  0
  5  9  1  0
  6  7  2  0
  7  8  1  0
  8  9  1  0
  9 10  2  0
 10 11  1  0
 11 12  2  0
 13 14  2  0
 13 17  1  0
 14 15  1  0
 15 16  1  0
 16 17  2  0
 16 18  1  0
 18 19  1  0
 18 20  1  0
 18 21  1  0
M  END
>  <Gold.Gold.Protein.RotatedWaterAtoms>  (339) 


>  <Gold.Id.Protein>  (339) 


>  <Gold.PLP.Chemscore.CHOScore>  (339) 
0.0000

>  <Gold.PLP.Chemscore.Hbond>  (339) 
2.3415

>  <Gold.PLP.Chemscore.Internal.Correction>  (339) 
0.0019

>  <Gold.PLP.Chemscore.Metal>  (339) 
0.0000

>  <Gold.PLP.Fitness>  (339) 
56.5001

>  <Gold.PLP.PLP>  (339) 
-50.3107

>  <Gold.PLP.ligand.clash>  (339) 
0.0000

>  <Gold.PLP.ligand.torsion>  (339) 
0.4185

>  <Gold.PLP.part.buried>  (339) 
0.7720

>  <Gold.PLP.part.hbond>  (339) 
-8.1681

>  <Gold.PLP.part.metal>  (339) 
0.0000

>  <Gold.PLP.part.nonpolar>  (339) 
-41.0891

>  <Gold.PLP.part.repulsive>  (339) 
0.9824

>  <Gold.Protein.RotatedAtoms>  (339) 


>  <Gold.Protein.RotatedTorsions>  (339) 


>  <Gold.Protein.RotatedWaterAtoms>  (339) 


>  <Gold.Version>  (339) 
5.3.0

>  <PLP.Chemscore.CHOScore>  (339) 


>  <PLP.Chemscore.Hbond>  (339) 


>  <PLP.Chemscore.Internal.Correction>  (339) 


>  <PLP.Chemscore.Metal>  (339) 


>  <PLP.Fitness>  (339) 


>  <PLP.PLP>  (339) 


>  <PLP.ligand.clash>  (339) 


>  <PLP.ligand.torsion>  (339) 


>  <PLP.part.buried>  (339) 


>  <PLP.part.hbond>  (339) 


>  <PLP.part.metal>  (339) 


>  <PLP.part.nonpolar>  (339) 


>  <PLP.part.repulsive>  (339) 


>  <Version>  (339) 


$$$$
3339|Compound_2064|Compounds_3D_F|sdf|597|dock3|1
     RDKit          3D

 21 23  0  0  0  0  0  0  0  0999 V2000
   -8.9529  -17.9352   11.5212 N   0  0  0  0  0  0  0  0  0  0  0  0
   -8.4710  -16.7097   11.8092 C   0  0  0  0  0  0  0  0  0  0  0  0
   -9.2355  -15.7756   11.9582 O   0  0  0  0  0  0  0  0  0  0  0  0
   -7.0179  -16.5027   11.9434 C   0  0  0  0  0  0  0  0  0  0  0  0
   -6.5025  -15.2098   12.1709 C   0  0  0  0  0  0  0  0  0  0  0  0
   -7.0690  -13.9945   12.3091 N   0  0  0  0  0  0  0  0  0  0  0  0
   -6.1451  -13.0973   12.5070 C   0  0  0  0  0  0  0  0  0  0  0  0
   -4.9199  -13.6836   12.5089 N   0  0  0  0  0  0  0  0  0  0  0  0
   -5.1138  -15.0345   12.2961 C   0  0  0  0  0  0  0  0  0  0  0  0
   -4.2643  -16.1264   12.1957 C   0  0  0  0  0  0  0  0  0  0  0  0
   -4.7796  -17.3891   11.9737 C   0  0  0  0  0  0  0  0  0  0  0  0
   -6.1424  -17.5826   11.8520 C   0  0  0  0  0  0  0  0  0  0  0  0
  -10.3268  -18.1311   11.3890 C   0  0  0  0  0  0  0  0  0  0  0  0
  -11.2680  -17.6251   12.1413 N   0  0  0  0  0  0  0  0  0  0  0  0
  -12.3649  -17.9793   11.7757 O   0  0  0  0  0  0  0  0  0  0  0  0
  -12.2967  -18.7871   10.7082 C   0  0  0  0  0  0  0  0  0  0  0  0
  -10.9844  -18.9176   10.4055 C   0  0  0  0  0  0  0  0  0  0  0  0
  -13.4550  -19.4201    9.9812 C   0  0  0  0  0  0  0  0  0  0  0  0
  -14.3431  -20.1607   10.9839 C   0  0  0  0  0  0  0  0  0  0  0  0
  -14.2735  -18.3315    9.2823 C   0  0  0  0  0  0  0  0  0  0  0  0
  -12.9260  -20.4079    8.9404 C   0  0  0  0  0  0  0  0  0  0  0  0
  1  2  1  0
  1 13  1  0
  2  3  2  0
  2  4  1  0
  4  5  2  0
  4 12  1  0
  5  6  1  0
  5  9  1  0
  6  7  2  0
  7  8  1  0
  8  9  1  0
  9 10  2  0
 10 11  1  0
 11 12  2  0
 13 14  2  0
 13 17  1  0
 14 15  1  0
 15 16  1  0
 16 17  2  0
 16 18  1  0
 18 19  1  0
 18 20  1  0
 18 21  1  0
M  END
>  <Gold.Gold.Protein.RotatedWaterAtoms>  (340) 


>  <Gold.Id.Protein>  (340) 


>  <Gold.PLP.Chemscore.CHOScore>  (340) 
0.0000

>  <Gold.PLP.Chemscore.Hbond>  (340) 
2.4550

>  <Gold.PLP.Chemscore.Internal.Correction>  (340) 
0.0019

>  <Gold.PLP.Chemscore.Metal>  (340) 
0.0000

>  <Gold.PLP.Fitness>  (340) 
57.4531

>  <Gold.PLP.PLP>  (340) 
-51.0944

>  <Gold.PLP.ligand.clash>  (340) 
0.0000

>  <Gold.PLP.ligand.torsion>  (340) 
0.5040

>  <Gold.PLP.part.buried>  (340) 
-7.9691

>  <Gold.PLP.part.hbond>  (340) 
-5.1116

>  <Gold.PLP.part.metal>  (340) 
0.0000

>  <Gold.PLP.part.nonpolar>  (340) 
-39.5788

>  <Gold.PLP.part.repulsive>  (340) 
0.4402

>  <Gold.Protein.RotatedAtoms>  (340) 


>  <Gold.Protein.RotatedTorsions>  (340) 


>  <Gold.Protein.RotatedWaterAtoms>  (340) 


>  <Gold.Version>  (340) 
5.3.0

>  <PLP.Chemscore.CHOScore>  (340) 


>  <PLP.Chemscore.Hbond>  (340) 


>  <PLP.Chemscore.Internal.Correction>  (340) 


>  <PLP.Chemscore.Metal>  (340) 


>  <PLP.Fitness>  (340) 


>  <PLP.PLP>  (340) 


>  <PLP.ligand.clash>  (340) 


>  <PLP.ligand.torsion>  (340) 


>  <PLP.part.buried>  (340) 


>  <PLP.part.hbond>  (340) 


>  <PLP.part.metal>  (340) 


>  <PLP.part.nonpolar>  (340) 


>  <PLP.part.repulsive>  (340) 


>  <Version>  (340) 


$$$$
3340|Compound_2064|Compounds_3D_F|sdf|597|dock4|1
     RDKit          3D

 21 23  0  0  0  0  0  0  0  0999 V2000
   -9.2157  -17.6744   11.5094 N   0  0  0  0  0  0  0  0  0  0  0  0
   -9.0590  -16.4238   11.9876 C   0  0  0  0  0  0  0  0  0  0  0  0
  -10.0301  -15.7813   12.3387 O   0  0  0  0  0  0  0  0  0  0  0  0
   -7.7108  -15.8361   12.0846 C   0  0  0  0  0  0  0  0  0  0  0  0
   -7.5428  -14.4361   12.0613 C   0  0  0  0  0  0  0  0  0  0  0  0
   -8.3980  -13.3989   11.9615 N   0  0  0  0  0  0  0  0  0  0  0  0
   -7.7355  -12.2773   11.9866 C   0  0  0  0  0  0  0  0  0  0  0  0
   -6.4053  -12.5250   12.1054 N   0  0  0  0  0  0  0  0  0  0  0  0
   -6.2486  -13.8964   12.1553 C   0  0  0  0  0  0  0  0  0  0  0  0
   -5.1520  -14.7380   12.2694 C   0  0  0  0  0  0  0  0  0  0  0  0
   -5.3277  -16.1084   12.2923 C   0  0  0  0  0  0  0  0  0  0  0  0
   -6.5924  -16.6582   12.2053 C   0  0  0  0  0  0  0  0  0  0  0  0
  -10.4909  -18.2294   11.4125 C   0  0  0  0  0  0  0  0  0  0  0  0
  -11.2243  -18.6876   12.3923 N   0  0  0  0  0  0  0  0  0  0  0  0
  -12.2855  -19.1067   11.9918 O   0  0  0  0  0  0  0  0  0  0  0  0
  -12.4005  -18.9811   10.6623 C   0  0  0  0  0  0  0  0  0  0  0  0
  -11.2555  -18.4055   10.2281 C   0  0  0  0  0  0  0  0  0  0  0  0
  -13.5778  -19.3922    9.8163 C   0  0  0  0  0  0  0  0  0  0  0  0
  -14.6271  -20.0726   10.6987 C   0  0  0  0  0  0  0  0  0  0  0  0
  -14.1905  -18.1523    9.1597 C   0  0  0  0  0  0  0  0  0  0  0  0
  -13.1124  -20.3658    8.7327 C   0  0  0  0  0  0  0  0  0  0  0  0
  1  2  1  0
  1 13  1  0
  2  3  2  0
  2  4  1  0
  4  5  2  0
  4 12  1  0
  5  6  1  0
  5  9  1  0
  6  7  2  0
  7  8  1  0
  8  9  1  0
  9 10  2  0
 10 11  1  0
 11 12  2  0
 13 14  2  0
 13 17  1  0
 14 15  1  0
 15 16  1  0
 16 17  2  0
 16 18  1  0
 18 19  1  0
 18 20  1  0
 18 21  1  0
M  END
>  <Gold.Gold.Protein.RotatedWaterAtoms>  (341) 


>  <Gold.Id.Protein>  (341) 


>  <Gold.PLP.Chemscore.CHOScore>  (341) 
0.0000

>  <Gold.PLP.Chemscore.Hbond>  (341) 
1.9027

>  <Gold.PLP.Chemscore.Internal.Correction>  (341) 
0.0019

>  <Gold.PLP.Chemscore.Metal>  (341) 
0.0000

>  <Gold.PLP.Fitness>  (341) 
55.9292

>  <Gold.PLP.PLP>  (341) 
-52.2419

>  <Gold.PLP.ligand.clash>  (341) 
0.0000

>  <Gold.PLP.ligand.torsion>  (341) 
1.0114

>  <Gold.PLP.part.buried>  (341) 
-8.9236

>  <Gold.PLP.part.hbond>  (341) 
-1.4330

>  <Gold.PLP.part.metal>  (341) 
0.0000

>  <Gold.PLP.part.nonpolar>  (341) 
-42.8849

>  <Gold.PLP.part.repulsive>  (341) 
0.4404

>  <Gold.Protein.RotatedAtoms>  (341) 


>  <Gold.Protein.RotatedTorsions>  (341) 


>  <Gold.Protein.RotatedWaterAtoms>  (341) 


>  <Gold.Version>  (341) 
5.3.0

>  <PLP.Chemscore.CHOScore>  (341) 


>  <PLP.Chemscore.Hbond>  (341) 


>  <PLP.Chemscore.Internal.Correction>  (341) 


>  <PLP.Chemscore.Metal>  (341) 


>  <PLP.Fitness>  (341) 


>  <PLP.PLP>  (341) 


>  <PLP.ligand.clash>  (341) 


>  <PLP.ligand.torsion>  (341) 


>  <PLP.part.buried>  (341) 


>  <PLP.part.hbond>  (341) 


>  <PLP.part.metal>  (341) 


>  <PLP.part.nonpolar>  (341) 


>  <PLP.part.repulsive>  (341) 


>  <Version>  (341) 


$$$$
3341|Compound_2064|Compounds_3D_F|sdf|597|dock5|1
     RDKit          3D

 21 23  0  0  0  0  0  0  0  0999 V2000
   -8.9062  -17.9749   11.4920 N   0  0  0  0  0  0  0  0  0  0  0  0
   -8.4323  -16.7430   11.7658 C   0  0  0  0  0  0  0  0  0  0  0  0
   -9.2024  -15.8110   11.8976 O   0  0  0  0  0  0  0  0  0  0  0  0
   -6.9811  -16.5266   11.9054 C   0  0  0  0  0  0  0  0  0  0  0  0
   -6.4746  -15.2298   12.1309 C   0  0  0  0  0  0  0  0  0  0  0  0
   -7.0493  -14.0176   12.2628 N   0  0  0  0  0  0  0  0  0  0  0  0
   -6.1318  -13.1141   12.4616 C   0  0  0  0  0  0  0  0  0  0  0  0
   -4.9030  -13.6927   12.4706 N   0  0  0  0  0  0  0  0  0  0  0  0
   -5.0876  -15.0455   12.2613 C   0  0  0  0  0  0  0  0  0  0  0  0
   -4.2310  -16.1324   12.1679 C   0  0  0  0  0  0  0  0  0  0  0  0
   -4.7375  -17.3990   11.9478 C   0  0  0  0  0  0  0  0  0  0  0  0
   -6.0985  -17.6013   11.8211 C   0  0  0  0  0  0  0  0  0  0  0  0
  -10.2783  -18.1798   11.3548 C   0  0  0  0  0  0  0  0  0  0  0  0
  -11.2255  -17.6812   12.1045 N   0  0  0  0  0  0  0  0  0  0  0  0
  -12.3187  -18.0422   11.7345 O   0  0  0  0  0  0  0  0  0  0  0  0
  -12.2415  -18.8479   10.6661 C   0  0  0  0  0  0  0  0  0  0  0  0
  -10.9272  -18.9691   10.3677 C   0  0  0  0  0  0  0  0  0  0  0  0
  -13.3929  -19.4875    9.9341 C   0  0  0  0  0  0  0  0  0  0  0  0
  -14.2078  -18.4059    9.2209 C   0  0  0  0  0  0  0  0  0  0  0  0
  -12.8515  -20.4809    8.9027 C   0  0  0  0  0  0  0  0  0  0  0  0
  -14.2861  -20.2250   10.9327 C   0  0  0  0  0  0  0  0  0  0  0  0
  1  2  1  0
  1 13  1  0
  2  3  2  0
  2  4  1  0
  4  5  2  0
  4 12  1  0
  5  6  1  0
  5  9  1  0
  6  7  2  0
  7  8  1  0
  8  9  1  0
  9 10  2  0
 10 11  1  0
 11 12  2  0
 13 14  2  0
 13 17  1  0
 14 15  1  0
 15 16  1  0
 16 17  2  0
 16 18  1  0
 18 19  1  0
 18 20  1  0
 18 21  1  0
M  END
>  <Gold.Gold.Protein.RotatedWaterAtoms>  (342) 


>  <Gold.Id.Protein>  (342) 


>  <Gold.PLP.Chemscore.CHOScore>  (342) 
0.0000

>  <Gold.PLP.Chemscore.Hbond>  (342) 
2.3725

>  <Gold.PLP.Chemscore.Internal.Correction>  (342) 
0.0019

>  <Gold.PLP.Chemscore.Metal>  (342) 
0.0000

>  <Gold.PLP.Fitness>  (342) 
57.6423

>  <Gold.PLP.PLP>  (342) 
-51.5937

>  <Gold.PLP.ligand.clash>  (342) 
0.0000

>  <Gold.PLP.ligand.torsion>  (342) 
0.5354

>  <Gold.PLP.part.buried>  (342) 
-8.8900

>  <Gold.PLP.part.hbond>  (342) 
-5.1412

>  <Gold.PLP.part.metal>  (342) 
0.0000

>  <Gold.PLP.part.nonpolar>  (342) 
-39.4990

>  <Gold.PLP.part.repulsive>  (342) 
0.4276

>  <Gold.Protein.RotatedAtoms>  (342) 


>  <Gold.Protein.RotatedTorsions>  (342) 


>  <Gold.Protein.RotatedWaterAtoms>  (342) 


>  <Gold.Version>  (342) 
5.3.0

>  <PLP.Chemscore.CHOScore>  (342) 


>  <PLP.Chemscore.Hbond>  (342) 


>  <PLP.Chemscore.Internal.Correction>  (342) 


>  <PLP.Chemscore.Metal>  (342) 


>  <PLP.Fitness>  (342) 


>  <PLP.PLP>  (342) 


>  <PLP.ligand.clash>  (342) 


>  <PLP.ligand.torsion>  (342) 


>  <PLP.part.buried>  (342) 


>  <PLP.part.hbond>  (342) 


>  <PLP.part.metal>  (342) 


>  <PLP.part.nonpolar>  (342) 


>  <PLP.part.repulsive>  (342) 


>  <Version>  (342) 


$$$$
3342|Compound_2066|Compounds_3D_F|sdf|598|dock1|1
     RDKit          3D

 21 23  0  0  0  0  0  0  0  0999 V2000
   -8.6892  -17.0824   11.7494 N   0  0  0  0  0  0  0  0  0  0  0  0
   -8.9547  -15.7911   12.0306 C   0  0  0  0  0  0  0  0  0  0  0  0
  -10.1036  -15.4294   12.1988 O   0  0  0  0  0  0  0  0  0  0  0  0
   -7.8521  -14.8184   12.1342 C   0  0  0  0  0  0  0  0  0  0  0  0
   -6.5126  -15.2595   12.1270 C   0  0  0  0  0  0  0  0  0  0  0  0
   -5.9346  -16.4742   12.0396 N   0  0  0  0  0  0  0  0  0  0  0  0
   -4.6382  -16.3492   12.0782 C   0  0  0  0  0  0  0  0  0  0  0  0
   -4.3002  -15.0387   12.1920 N   0  0  0  0  0  0  0  0  0  0  0  0
   -5.4764  -14.3155   12.2266 C   0  0  0  0  0  0  0  0  0  0  0  0
   -5.7752  -12.9651   12.3318 C   0  0  0  0  0  0  0  0  0  0  0  0
   -7.0911  -12.5434   12.3379 C   0  0  0  0  0  0  0  0  0  0  0  0
   -8.1238  -13.4556   12.2348 C   0  0  0  0  0  0  0  0  0  0  0  0
   -9.7314  -18.0014   11.6463 C   0  0  0  0  0  0  0  0  0  0  0  0
  -10.9547  -17.8171   12.0577 N   0  0  0  0  0  0  0  0  0  0  0  0
  -11.6940  -18.9901   11.7637 O   0  0  0  0  0  0  0  0  0  0  0  0
  -10.8123  -19.9051   11.1376 N   0  0  0  0  0  0  0  0  0  0  0  0
   -9.6418  -19.3374   11.0504 C   0  0  0  0  0  0  0  0  0  0  0  0
   -8.4972  -19.9084   10.4931 N   0  0  0  0  0  0  0  0  0  0  0  0
   -8.4826  -21.2183   10.1781 C   0  0  0  0  0  0  0  0  0  0  0  0
   -9.4650  -21.9013   10.3781 O   0  0  0  0  0  0  0  0  0  0  0  0
   -7.2459  -21.8351    9.5767 C   0  0  0  0  0  0  0  0  0  0  0  0
  1  2  1  0
  1 13  1  0
  2  3  2  0
  2  4  1  0
  4  5  2  0
  4 12  1  0
  5  6  1  0
  5  9  1  0
  6  7  2  0
  7  8  1  0
  8  9  1  0
  9 10  2  0
 10 11  1  0
 11 12  2  0
 13 14  2  0
 13 17  1  0
 14 15  1  0
 15 16  1  0
 16 17  2  0
 17 18  1  0
 18 19  1  0
 19 20  2  0
 19 21  1  0
M  END
>  <Gold.Gold.Protein.RotatedWaterAtoms>  (343) 


>  <Gold.Id.Protein>  (343) 


>  <Gold.PLP.Chemscore.CHOScore>  (343) 
0.0000

>  <Gold.PLP.Chemscore.Hbond>  (343) 
2.4753

>  <Gold.PLP.Chemscore.Internal.Correction>  (343) 
0.0064

>  <Gold.PLP.Chemscore.Metal>  (343) 
0.0000

>  <Gold.PLP.Fitness>  (343) 
51.6300

>  <Gold.PLP.PLP>  (343) 
-44.4261

>  <Gold.PLP.ligand.clash>  (343) 
0.0000

>  <Gold.PLP.ligand.torsion>  (343) 
0.1142

>  <Gold.PLP.part.buried>  (343) 
-9.7263

>  <Gold.PLP.part.hbond>  (343) 
-2.9537

>  <Gold.PLP.part.metal>  (343) 
0.0000

>  <Gold.PLP.part.nonpolar>  (343) 
-32.9109

>  <Gold.PLP.part.repulsive>  (343) 
0.4074

>  <Gold.Protein.RotatedAtoms>  (343) 


>  <Gold.Protein.RotatedTorsions>  (343) 


>  <Gold.Protein.RotatedWaterAtoms>  (343) 


>  <Gold.Version>  (343) 
5.3.0

>  <PLP.Chemscore.CHOScore>  (343) 


>  <PLP.Chemscore.Hbond>  (343) 


>  <PLP.Chemscore.Internal.Correction>  (343) 


>  <PLP.Chemscore.Metal>  (343) 


>  <PLP.Fitness>  (343) 


>  <PLP.PLP>  (343) 


>  <PLP.ligand.clash>  (343) 


>  <PLP.ligand.torsion>  (343) 


>  <PLP.part.buried>  (343) 


>  <PLP.part.hbond>  (343) 


>  <PLP.part.metal>  (343) 


>  <PLP.part.nonpolar>  (343) 


>  <PLP.part.repulsive>  (343) 


>  <Version>  (343) 


$$$$
3343|Compound_2066|Compounds_3D_F|sdf|598|dock2|1
     RDKit          3D

 21 23  0  0  0  0  0  0  0  0999 V2000
   -8.9452  -17.0906   11.6329 N   0  0  0  0  0  0  0  0  0  0  0  0
   -9.2998  -15.9170   12.1933 C   0  0  0  0  0  0  0  0  0  0  0  0
  -10.3909  -15.7988   12.7172 O   0  0  0  0  0  0  0  0  0  0  0  0
   -8.3647  -14.7780   12.1707 C   0  0  0  0  0  0  0  0  0  0  0  0
   -6.9723  -15.0016   12.1789 C   0  0  0  0  0  0  0  0  0  0  0  0
   -6.2097  -16.1128   12.2047 N   0  0  0  0  0  0  0  0  0  0  0  0
   -4.9493  -15.7826   12.2008 C   0  0  0  0  0  0  0  0  0  0  0  0
   -4.8224  -14.4307   12.1706 N   0  0  0  0  0  0  0  0  0  0  0  0
   -6.0982  -13.9015   12.1567 C   0  0  0  0  0  0  0  0  0  0  0  0
   -6.6065  -12.6113   12.1284 C   0  0  0  0  0  0  0  0  0  0  0  0
   -7.9725  -12.4030   12.1205 C   0  0  0  0  0  0  0  0  0  0  0  0
   -8.8483  -13.4718   12.1357 C   0  0  0  0  0  0  0  0  0  0  0  0
   -9.8306  -18.1662   11.6495 C   0  0  0  0  0  0  0  0  0  0  0  0
  -11.0063  -18.1781   12.2127 N   0  0  0  0  0  0  0  0  0  0  0  0
  -11.5783  -19.4571   11.9989 O   0  0  0  0  0  0  0  0  0  0  0  0
  -10.6465  -20.2232   11.2562 N   0  0  0  0  0  0  0  0  0  0  0  0
   -9.6028  -19.4751   11.0304 C   0  0  0  0  0  0  0  0  0  0  0  0
   -8.4603  -19.8586   10.3274 N   0  0  0  0  0  0  0  0  0  0  0  0
   -8.1714  -21.1654   10.1725 C   0  0  0  0  0  0  0  0  0  0  0  0
   -8.9051  -22.0089   10.6435 O   0  0  0  0  0  0  0  0  0  0  0  0
   -6.9368  -21.5796    9.4136 C   0  0  0  0  0  0  0  0  0  0  0  0
  1  2  1  0
  1 13  1  0
  2  3  2  0
  2  4  1  0
  4  5  2  0
  4 12  1  0
  5  6  1  0
  5  9  1  0
  6  7  2  0
  7  8  1  0
  8  9  1  0
  9 10  2  0
 10 11  1  0
 11 12  2  0
 13 14  2  0
 13 17  1  0
 14 15  1  0
 15 16  1  0
 16 17  2  0
 17 18  1  0
 18 19  1  0
 19 20  2  0
 19 21  1  0
M  END
>  <Gold.Gold.Protein.RotatedWaterAtoms>  (344) 


>  <Gold.Id.Protein>  (344) 


>  <Gold.PLP.Chemscore.CHOScore>  (344) 
0.0000

>  <Gold.PLP.Chemscore.Hbond>  (344) 
3.3248

>  <Gold.PLP.Chemscore.Internal.Correction>  (344) 
0.0036

>  <Gold.PLP.Chemscore.Metal>  (344) 
0.0000

>  <Gold.PLP.Fitness>  (344) 
52.3898

>  <Gold.PLP.PLP>  (344) 
-43.3705

>  <Gold.PLP.ligand.clash>  (344) 
0.0000

>  <Gold.PLP.ligand.torsion>  (344) 
0.4793

>  <Gold.PLP.part.buried>  (344) 
-8.6348

>  <Gold.PLP.part.hbond>  (344) 
-4.4771

>  <Gold.PLP.part.metal>  (344) 
0.0000

>  <Gold.PLP.part.nonpolar>  (344) 
-34.0943

>  <Gold.PLP.part.repulsive>  (344) 
1.6392

>  <Gold.Protein.RotatedAtoms>  (344) 


>  <Gold.Protein.RotatedTorsions>  (344) 


>  <Gold.Protein.RotatedWaterAtoms>  (344) 


>  <Gold.Version>  (344) 
5.3.0

>  <PLP.Chemscore.CHOScore>  (344) 


>  <PLP.Chemscore.Hbond>  (344) 


>  <PLP.Chemscore.Internal.Correction>  (344) 


>  <PLP.Chemscore.Metal>  (344) 


>  <PLP.Fitness>  (344) 


>  <PLP.PLP>  (344) 


>  <PLP.ligand.clash>  (344) 


>  <PLP.ligand.torsion>  (344) 


>  <PLP.part.buried>  (344) 


>  <PLP.part.hbond>  (344) 


>  <PLP.part.metal>  (344) 


>  <PLP.part.nonpolar>  (344) 


>  <PLP.part.repulsive>  (344) 


>  <Version>  (344) 


$$$$
3344|Compound_2066|Compounds_3D_F|sdf|598|dock3|1
     RDKit          3D

 21 23  0  0  0  0  0  0  0  0999 V2000
   -8.8765  -17.1249   11.7794 N   0  0  0  0  0  0  0  0  0  0  0  0
   -9.0525  -15.8337   12.1241 C   0  0  0  0  0  0  0  0  0  0  0  0
  -10.1677  -15.4179   12.3739 O   0  0  0  0  0  0  0  0  0  0  0  0
   -7.8930  -14.9268   12.1983 C   0  0  0  0  0  0  0  0  0  0  0  0
   -6.5821  -15.4462   12.1728 C   0  0  0  0  0  0  0  0  0  0  0  0
   -6.0781  -16.6935   12.0886 N   0  0  0  0  0  0  0  0  0  0  0  0
   -4.7762  -16.6449   12.1036 C   0  0  0  0  0  0  0  0  0  0  0  0
   -4.3596  -15.3555   12.1974 N   0  0  0  0  0  0  0  0  0  0  0  0
   -5.4905  -14.5639   12.2444 C   0  0  0  0  0  0  0  0  0  0  0  0
   -5.7075  -13.1973   12.3403 C   0  0  0  0  0  0  0  0  0  0  0  0
   -6.9960  -12.6987   12.3644 C   0  0  0  0  0  0  0  0  0  0  0  0
   -8.0822  -13.5494   12.2889 C   0  0  0  0  0  0  0  0  0  0  0  0
   -9.9727  -17.9815   11.7041 C   0  0  0  0  0  0  0  0  0  0  0  0
  -11.1693  -17.7310   12.1570 N   0  0  0  0  0  0  0  0  0  0  0  0
  -11.9842  -18.8568   11.8792 O   0  0  0  0  0  0  0  0  0  0  0  0
  -11.1777  -19.8153   11.2177 N   0  0  0  0  0  0  0  0  0  0  0  0
   -9.9799  -19.3150   11.0959 C   0  0  0  0  0  0  0  0  0  0  0  0
   -8.8889  -19.9457   10.4970 N   0  0  0  0  0  0  0  0  0  0  0  0
   -8.8473  -21.2900   10.4187 C   0  0  0  0  0  0  0  0  0  0  0  0
   -9.7588  -21.9524   10.8681 O   0  0  0  0  0  0  0  0  0  0  0  0
   -7.6684  -21.9712    9.7723 C   0  0  0  0  0  0  0  0  0  0  0  0
  1  2  1  0
  1 13  1  0
  2  3  2  0
  2  4  1  0
  4  5  2  0
  4 12  1  0
  5  6  1  0
  5  9  1  0
  6  7  2  0
  7  8  1  0
  8  9  1  0
  9 10  2  0
 10 11  1  0
 11 12  2  0
 13 14  2  0
 13 17  1  0
 14 15  1  0
 15 16  1  0
 16 17  2  0
 17 18  1  0
 18 19  1  0
 19 20  2  0
 19 21  1  0
M  END
>  <Gold.Gold.Protein.RotatedWaterAtoms>  (345) 


>  <Gold.Id.Protein>  (345) 


>  <Gold.PLP.Chemscore.CHOScore>  (345) 
0.0000

>  <Gold.PLP.Chemscore.Hbond>  (345) 
2.7069

>  <Gold.PLP.Chemscore.Internal.Correction>  (345) 
0.0036

>  <Gold.PLP.Chemscore.Metal>  (345) 
0.0000

>  <Gold.PLP.Fitness>  (345) 
51.8461

>  <Gold.PLP.PLP>  (345) 
-44.1954

>  <Gold.PLP.ligand.clash>  (345) 
0.0000

>  <Gold.PLP.ligand.torsion>  (345) 
0.2368

>  <Gold.PLP.part.buried>  (345) 
-9.2148

>  <Gold.PLP.part.hbond>  (345) 
-4.2547

>  <Gold.PLP.part.metal>  (345) 
0.0000

>  <Gold.PLP.part.nonpolar>  (345) 
-33.2260

>  <Gold.PLP.part.repulsive>  (345) 
0.3933

>  <Gold.Protein.RotatedAtoms>  (345) 


>  <Gold.Protein.RotatedTorsions>  (345) 


>  <Gold.Protein.RotatedWaterAtoms>  (345) 


>  <Gold.Version>  (345) 
5.3.0

>  <PLP.Chemscore.CHOScore>  (345) 


>  <PLP.Chemscore.Hbond>  (345) 


>  <PLP.Chemscore.Internal.Correction>  (345) 


>  <PLP.Chemscore.Metal>  (345) 


>  <PLP.Fitness>  (345) 


>  <PLP.PLP>  (345) 


>  <PLP.ligand.clash>  (345) 


>  <PLP.ligand.torsion>  (345) 


>  <PLP.part.buried>  (345) 


>  <PLP.part.hbond>  (345) 


>  <PLP.part.metal>  (345) 


>  <PLP.part.nonpolar>  (345) 


>  <PLP.part.repulsive>  (345) 


>  <Version>  (345) 


$$$$
3345|Compound_2067|Compounds_3D_F|sdf|599|dock1|1
     RDKit          3D

 22 24  0  0  0  0  0  0  0  0999 V2000
   -8.6116  -15.9209   12.4164 N   0  0  0  0  0  0  0  0  0  0  0  0
   -8.5447  -14.7478   11.7556 C   0  0  0  0  0  0  0  0  0  0  0  0
   -9.3994  -14.4600   10.9412 O   0  0  0  0  0  0  0  0  0  0  0  0
   -7.4353  -13.8161   12.0218 C   0  0  0  0  0  0  0  0  0  0  0  0
   -7.5966  -12.4336   11.7891 C   0  0  0  0  0  0  0  0  0  0  0  0
   -8.6193  -11.6808   11.3369 N   0  0  0  0  0  0  0  0  0  0  0  0
   -8.2622  -10.4283   11.3005 C   0  0  0  0  0  0  0  0  0  0  0  0
   -6.9804  -10.2971   11.7300 N   0  0  0  0  0  0  0  0  0  0  0  0
   -6.5259  -11.5616   12.0498 C   0  0  0  0  0  0  0  0  0  0  0  0
   -5.3251  -12.0613   12.5317 C   0  0  0  0  0  0  0  0  0  0  0  0
   -5.1770  -13.4166   12.7564 C   0  0  0  0  0  0  0  0  0  0  0  0
   -6.2198  -14.2905   12.5102 C   0  0  0  0  0  0  0  0  0  0  0  0
   -9.6445  -16.7943   12.1654 C   0  0  0  0  0  0  0  0  0  0  0  0
   -9.5827  -17.9940   11.4508 C   0  0  0  0  0  0  0  0  0  0  0  0
  -10.9240  -18.4752   11.5053 C   0  0  0  0  0  0  0  0  0  0  0  0
  -11.5987  -17.5988   12.1841 N   0  0  0  0  0  0  0  0  0  0  0  0
  -10.9202  -16.6740   12.5602 O   0  0  0  0  0  0  0  0  0  0  0  0
   -8.4197  -18.6073   10.8013 C   0  0  0  0  0  0  0  0  0  0  0  0
   -8.5597  -19.6026   10.1164 O   0  0  0  0  0  0  0  0  0  0  0  0
   -7.1949  -18.0671   10.9623 O   0  0  0  0  0  0  0  0  0  0  0  0
   -6.0736  -18.7937   10.3946 C   0  0  0  0  0  0  0  0  0  0  0  0
   -4.7632  -18.1357   10.8340 C   0  0  0  0  0  0  0  0  0  0  0  0
  1  2  1  0
  1 13  1  0
  2  3  2  0
  2  4  1  0
  4  5  2  0
  4 12  1  0
  5  6  1  0
  5  9  1  0
  6  7  2  0
  7  8  1  0
  8  9  1  0
  9 10  2  0
 10 11  1  0
 11 12  2  0
 13 14  2  0
 13 17  1  0
 14 15  1  0
 14 18  1  0
 15 16  2  0
 16 17  1  0
 18 19  2  0
 18 20  1  0
 20 21  1  0
 21 22  1  0
M  END
>  <Gold.Gold.Protein.RotatedWaterAtoms>  (346) 


>  <Gold.Id.Protein>  (346) 


>  <Gold.PLP.Chemscore.CHOScore>  (346) 
0.9382

>  <Gold.PLP.Chemscore.Hbond>  (346) 
1.3091

>  <Gold.PLP.Chemscore.Internal.Correction>  (346) 
0.0311

>  <Gold.PLP.Chemscore.Metal>  (346) 
0.0000

>  <Gold.PLP.Fitness>  (346) 
58.9919

>  <Gold.PLP.PLP>  (346) 
-54.2803

>  <Gold.PLP.ligand.clash>  (346) 
0.0000

>  <Gold.PLP.ligand.torsion>  (346) 
1.0307

>  <Gold.PLP.part.buried>  (346) 
-3.7995

>  <Gold.PLP.part.hbond>  (346) 
-7.3684

>  <Gold.PLP.part.metal>  (346) 
0.0000

>  <Gold.PLP.part.nonpolar>  (346) 
-44.9541

>  <Gold.PLP.part.repulsive>  (346) 
0.7749

>  <Gold.Protein.RotatedAtoms>  (346) 


>  <Gold.Protein.RotatedTorsions>  (346) 


>  <Gold.Protein.RotatedWaterAtoms>  (346) 


>  <Gold.Version>  (346) 
5.3.0

>  <PLP.Chemscore.CHOScore>  (346) 


>  <PLP.Chemscore.Hbond>  (346) 


>  <PLP.Chemscore.Internal.Correction>  (346) 


>  <PLP.Chemscore.Metal>  (346) 


>  <PLP.Fitness>  (346) 


>  <PLP.PLP>  (346) 


>  <PLP.ligand.clash>  (346) 


>  <PLP.ligand.torsion>  (346) 


>  <PLP.part.buried>  (346) 


>  <PLP.part.hbond>  (346) 


>  <PLP.part.metal>  (346) 


>  <PLP.part.nonpolar>  (346) 


>  <PLP.part.repulsive>  (346) 


>  <Version>  (346) 


$$$$
3346|Compound_2067|Compounds_3D_F|sdf|599|dock2|1
     RDKit          3D

 22 24  0  0  0  0  0  0  0  0999 V2000
   -8.7786  -14.8180   12.5163 N   0  0  0  0  0  0  0  0  0  0  0  0
   -8.9499  -13.7762   11.6781 C   0  0  0  0  0  0  0  0  0  0  0  0
   -9.7699  -13.8446   10.7841 O   0  0  0  0  0  0  0  0  0  0  0  0
   -8.1425  -12.5558   11.8473 C   0  0  0  0  0  0  0  0  0  0  0  0
   -6.8191  -12.6401   12.3299 C   0  0  0  0  0  0  0  0  0  0  0  0
   -6.0337  -13.6664   12.7133 N   0  0  0  0  0  0  0  0  0  0  0  0
   -4.8697  -13.2152   13.0864 C   0  0  0  0  0  0  0  0  0  0  0  0
   -4.8340  -11.8628   12.9649 N   0  0  0  0  0  0  0  0  0  0  0  0
   -6.0658  -11.4639   12.4838 C   0  0  0  0  0  0  0  0  0  0  0  0
   -6.6232  -10.2353   12.1619 C   0  0  0  0  0  0  0  0  0  0  0  0
   -7.9199  -10.1632   11.6900 C   0  0  0  0  0  0  0  0  0  0  0  0
   -8.6762  -11.3092   11.5276 C   0  0  0  0  0  0  0  0  0  0  0  0
   -9.5284  -15.9604   12.3566 C   0  0  0  0  0  0  0  0  0  0  0  0
   -9.1241  -17.1619   11.7682 C   0  0  0  0  0  0  0  0  0  0  0  0
  -10.2853  -17.9831   11.8726 C   0  0  0  0  0  0  0  0  0  0  0  0
  -11.1907  -17.2615   12.4591 N   0  0  0  0  0  0  0  0  0  0  0  0
  -10.7991  -16.1543   12.7382 O   0  0  0  0  0  0  0  0  0  0  0  0
   -7.8212  -17.4956   11.1836 C   0  0  0  0  0  0  0  0  0  0  0  0
   -7.6340  -18.5969   10.7025 O   0  0  0  0  0  0  0  0  0  0  0  0
   -6.8306  -16.5809   11.1782 O   0  0  0  0  0  0  0  0  0  0  0  0
   -5.5398  -17.0093   10.6704 C   0  0  0  0  0  0  0  0  0  0  0  0
   -4.9782  -18.1140   11.5692 C   0  0  0  0  0  0  0  0  0  0  0  0
  1  2  1  0
  1 13  1  0
  2  3  2  0
  2  4  1  0
  4  5  2  0
  4 12  1  0
  5  6  1  0
  5  9  1  0
  6  7  2  0
  7  8  1  0
  8  9  1  0
  9 10  2  0
 10 11  1  0
 11 12  2  0
 13 14  2  0
 13 17  1  0
 14 15  1  0
 14 18  1  0
 15 16  2  0
 16 17  1  0
 18 19  2  0
 18 20  1  0
 20 21  1  0
 21 22  1  0
M  END
>  <Gold.Gold.Protein.RotatedWaterAtoms>  (347) 


>  <Gold.Id.Protein>  (347) 


>  <Gold.PLP.Chemscore.CHOScore>  (347) 
0.8810

>  <Gold.PLP.Chemscore.Hbond>  (347) 
3.1592

>  <Gold.PLP.Chemscore.Internal.Correction>  (347) 
0.0241

>  <Gold.PLP.Chemscore.Metal>  (347) 
0.0000

>  <Gold.PLP.Fitness>  (347) 
62.2101

>  <Gold.PLP.PLP>  (347) 
-52.4210

>  <Gold.PLP.ligand.clash>  (347) 
0.0000

>  <Gold.PLP.ligand.torsion>  (347) 
1.1778

>  <Gold.PLP.part.buried>  (347) 
-3.5554

>  <Gold.PLP.part.hbond>  (347) 
-7.6378

>  <Gold.PLP.part.metal>  (347) 
0.0000

>  <Gold.PLP.part.nonpolar>  (347) 
-47.1048

>  <Gold.PLP.part.repulsive>  (347) 
3.1376

>  <Gold.Protein.RotatedAtoms>  (347) 


>  <Gold.Protein.RotatedTorsions>  (347) 


>  <Gold.Protein.RotatedWaterAtoms>  (347) 


>  <Gold.Version>  (347) 
5.3.0

>  <PLP.Chemscore.CHOScore>  (347) 


>  <PLP.Chemscore.Hbond>  (347) 


>  <PLP.Chemscore.Internal.Correction>  (347) 


>  <PLP.Chemscore.Metal>  (347) 


>  <PLP.Fitness>  (347) 


>  <PLP.PLP>  (347) 


>  <PLP.ligand.clash>  (347) 


>  <PLP.ligand.torsion>  (347) 


>  <PLP.part.buried>  (347) 


>  <PLP.part.hbond>  (347) 


>  <PLP.part.metal>  (347) 


>  <PLP.part.nonpolar>  (347) 


>  <PLP.part.repulsive>  (347) 


>  <Version>  (347) 


$$$$
3347|Compound_2067|Compounds_3D_F|sdf|599|dock3|1
     RDKit          3D

 22 24  0  0  0  0  0  0  0  0999 V2000
   -8.8441  -16.8141   11.9048 N   0  0  0  0  0  0  0  0  0  0  0  0
   -8.9984  -15.4880   12.0913 C   0  0  0  0  0  0  0  0  0  0  0  0
  -10.1134  -15.0109   12.1660 O   0  0  0  0  0  0  0  0  0  0  0  0
   -7.8146  -14.6186   12.2045 C   0  0  0  0  0  0  0  0  0  0  0  0
   -6.5180  -15.1741   12.1621 C   0  0  0  0  0  0  0  0  0  0  0  0
   -6.0498  -16.4313   12.0309 N   0  0  0  0  0  0  0  0  0  0  0  0
   -4.7470  -16.4208   12.0514 C   0  0  0  0  0  0  0  0  0  0  0  0
   -4.2940  -15.1487   12.1973 N   0  0  0  0  0  0  0  0  0  0  0  0
   -5.4019  -14.3272   12.2715 C   0  0  0  0  0  0  0  0  0  0  0  0
   -5.5799  -12.9595   12.4188 C   0  0  0  0  0  0  0  0  0  0  0  0
   -6.8536  -12.4253   12.4592 C   0  0  0  0  0  0  0  0  0  0  0  0
   -7.9646  -13.2410   12.3490 C   0  0  0  0  0  0  0  0  0  0  0  0
   -9.9487  -17.6266   11.7940 C   0  0  0  0  0  0  0  0  0  0  0  0
  -10.0120  -18.8919   11.2037 C   0  0  0  0  0  0  0  0  0  0  0  0
  -11.3790  -19.2618   11.3711 C   0  0  0  0  0  0  0  0  0  0  0  0
  -11.9512  -18.2739   11.9883 N   0  0  0  0  0  0  0  0  0  0  0  0
  -11.1890  -17.3710   12.2351 O   0  0  0  0  0  0  0  0  0  0  0  0
   -8.9332  -19.6532   10.5654 C   0  0  0  0  0  0  0  0  0  0  0  0
   -9.1604  -20.7497   10.0909 O   0  0  0  0  0  0  0  0  0  0  0  0
   -7.6892  -19.1368   10.5034 O   0  0  0  0  0  0  0  0  0  0  0  0
   -6.6741  -19.9390    9.8450 C   0  0  0  0  0  0  0  0  0  0  0  0
   -5.3467  -19.1766    9.8361 C   0  0  0  0  0  0  0  0  0  0  0  0
  1  2  1  0
  1 13  1  0
  2  3  2  0
  2  4  1  0
  4  5  2  0
  4 12  1  0
  5  6  1  0
  5  9  1  0
  6  7  2  0
  7  8  1  0
  8  9  1  0
  9 10  2  0
 10 11  1  0
 11 12  2  0
 13 14  2  0
 13 17  1  0
 14 15  1  0
 14 18  1  0
 15 16  2  0
 16 17  1  0
 18 19  2  0
 18 20  1  0
 20 21  1  0
 21 22  1  0
M  END
>  <Gold.Gold.Protein.RotatedWaterAtoms>  (348) 


>  <Gold.Id.Protein>  (348) 


>  <Gold.PLP.Chemscore.CHOScore>  (348) 
0.0000

>  <Gold.PLP.Chemscore.Hbond>  (348) 
2.3965

>  <Gold.PLP.Chemscore.Internal.Correction>  (348) 
0.0241

>  <Gold.PLP.Chemscore.Metal>  (348) 
0.0000

>  <Gold.PLP.Fitness>  (348) 
55.7344

>  <Gold.PLP.PLP>  (348) 
-48.7328

>  <Gold.PLP.ligand.clash>  (348) 
0.0000

>  <Gold.PLP.ligand.torsion>  (348) 
0.1060

>  <Gold.PLP.part.buried>  (348) 
-7.8798

>  <Gold.PLP.part.hbond>  (348) 
-3.8716

>  <Gold.PLP.part.metal>  (348) 
0.0000

>  <Gold.PLP.part.nonpolar>  (348) 
-37.3020

>  <Gold.PLP.part.repulsive>  (348) 
0.4476

>  <Gold.Protein.RotatedAtoms>  (348) 


>  <Gold.Protein.RotatedTorsions>  (348) 


>  <Gold.Protein.RotatedWaterAtoms>  (348) 


>  <Gold.Version>  (348) 
5.3.0

>  <PLP.Chemscore.CHOScore>  (348) 


>  <PLP.Chemscore.Hbond>  (348) 


>  <PLP.Chemscore.Internal.Correction>  (348) 


>  <PLP.Chemscore.Metal>  (348) 


>  <PLP.Fitness>  (348) 


>  <PLP.PLP>  (348) 


>  <PLP.ligand.clash>  (348) 


>  <PLP.ligand.torsion>  (348) 


>  <PLP.part.buried>  (348) 


>  <PLP.part.hbond>  (348) 


>  <PLP.part.metal>  (348) 


>  <PLP.part.nonpolar>  (348) 


>  <PLP.part.repulsive>  (348) 


>  <Version>  (348) 


$$$$
3348|Compound_2067|Compounds_3D_F|sdf|599|dock4|1
     RDKit          3D

 22 24  0  0  0  0  0  0  0  0999 V2000
   -8.0857  -15.9271   11.7778 N   0  0  0  0  0  0  0  0  0  0  0  0
   -8.3831  -14.6322   12.0053 C   0  0  0  0  0  0  0  0  0  0  0  0
   -9.5437  -14.2780   12.0703 O   0  0  0  0  0  0  0  0  0  0  0  0
   -7.3005  -13.6478   12.1749 C   0  0  0  0  0  0  0  0  0  0  0  0
   -7.5227  -12.2875   11.8725 C   0  0  0  0  0  0  0  0  0  0  0  0
   -8.5895  -11.5986   11.4202 N   0  0  0  0  0  0  0  0  0  0  0  0
   -8.2817  -10.3382   11.3001 C   0  0  0  0  0  0  0  0  0  0  0  0
   -6.9904  -10.1372   11.6703 N   0  0  0  0  0  0  0  0  0  0  0  0
   -6.4767  -11.3644   12.0415 C   0  0  0  0  0  0  0  0  0  0  0  0
   -5.2405  -11.7926   12.5023 C   0  0  0  0  0  0  0  0  0  0  0  0
   -5.0329  -13.1268   12.7958 C   0  0  0  0  0  0  0  0  0  0  0  0
   -6.0503  -14.0500   12.6402 C   0  0  0  0  0  0  0  0  0  0  0  0
   -9.0956  -16.8469   11.6142 C   0  0  0  0  0  0  0  0  0  0  0  0
   -8.9904  -18.1311   11.0727 C   0  0  0  0  0  0  0  0  0  0  0  0
  -10.3254  -18.6269   11.1478 C   0  0  0  0  0  0  0  0  0  0  0  0
  -11.0370  -17.6798   11.6777 N   0  0  0  0  0  0  0  0  0  0  0  0
  -10.3863  -16.6992   11.9463 O   0  0  0  0  0  0  0  0  0  0  0  0
   -7.7959  -18.8040   10.5521 C   0  0  0  0  0  0  0  0  0  0  0  0
   -7.9073  -19.8287    9.9064 O   0  0  0  0  0  0  0  0  0  0  0  0
   -6.5737  -18.2859   10.7881 O   0  0  0  0  0  0  0  0  0  0  0  0
   -5.4322  -19.0427   10.3065 C   0  0  0  0  0  0  0  0  0  0  0  0
   -4.1398  -18.3176   10.6901 C   0  0  0  0  0  0  0  0  0  0  0  0
  1  2  1  0
  1 13  1  0
  2  3  2  0
  2  4  1  0
  4  5  2  0
  4 12  1  0
  5  6  1  0
  5  9  1  0
  6  7  2  0
  7  8  1  0
  8  9  1  0
  9 10  2  0
 10 11  1  0
 11 12  2  0
 13 14  2  0
 13 17  1  0
 14 15  1  0
 14 18  1  0
 15 16  2  0
 16 17  1  0
 18 19  2  0
 18 20  1  0
 20 21  1  0
 21 22  1  0
M  END
>  <Gold.Gold.Protein.RotatedWaterAtoms>  (349) 


>  <Gold.Id.Protein>  (349) 


>  <Gold.PLP.Chemscore.CHOScore>  (349) 
0.8872

>  <Gold.PLP.Chemscore.Hbond>  (349) 
0.8960

>  <Gold.PLP.Chemscore.Internal.Correction>  (349) 
0.0241

>  <Gold.PLP.Chemscore.Metal>  (349) 
0.0000

>  <Gold.PLP.Fitness>  (349) 
58.6423

>  <Gold.PLP.PLP>  (349) 
-54.1377

>  <Gold.PLP.ligand.clash>  (349) 
0.0000

>  <Gold.PLP.ligand.torsion>  (349) 
0.4345

>  <Gold.PLP.part.buried>  (349) 
-5.2731

>  <Gold.PLP.part.hbond>  (349) 
-3.7275

>  <Gold.PLP.part.metal>  (349) 
0.0000

>  <Gold.PLP.part.nonpolar>  (349) 
-45.4394

>  <Gold.PLP.part.repulsive>  (349) 
0.6486

>  <Gold.Protein.RotatedAtoms>  (349) 


>  <Gold.Protein.RotatedTorsions>  (349) 


>  <Gold.Protein.RotatedWaterAtoms>  (349) 


>  <Gold.Version>  (349) 
5.3.0

>  <PLP.Chemscore.CHOScore>  (349) 


>  <PLP.Chemscore.Hbond>  (349) 


>  <PLP.Chemscore.Internal.Correction>  (349) 


>  <PLP.Chemscore.Metal>  (349) 


>  <PLP.Fitness>  (349) 


>  <PLP.PLP>  (349) 


>  <PLP.ligand.clash>  (349) 


>  <PLP.ligand.torsion>  (349) 


>  <PLP.part.buried>  (349) 


>  <PLP.part.hbond>  (349) 


>  <PLP.part.metal>  (349) 


>  <PLP.part.nonpolar>  (349) 


>  <PLP.part.repulsive>  (349) 


>  <Version>  (349) 


$$$$
3349|Compound_2067|Compounds_3D_F|sdf|599|dock5|1
     RDKit          3D

 22 24  0  0  0  0  0  0  0  0999 V2000
   -8.8514  -16.7042   11.7709 N   0  0  0  0  0  0  0  0  0  0  0  0
   -9.1458  -15.4312   12.1027 C   0  0  0  0  0  0  0  0  0  0  0  0
  -10.2902  -15.1225   12.3702 O   0  0  0  0  0  0  0  0  0  0  0  0
   -8.0794  -14.4158   12.1407 C   0  0  0  0  0  0  0  0  0  0  0  0
   -6.7240  -14.8084   12.1559 C   0  0  0  0  0  0  0  0  0  0  0  0
   -6.1033  -16.0049   12.1437 N   0  0  0  0  0  0  0  0  0  0  0  0
   -4.8121  -15.8319   12.1693 C   0  0  0  0  0  0  0  0  0  0  0  0
   -4.5207  -14.5056   12.1993 N   0  0  0  0  0  0  0  0  0  0  0  0
   -5.7220  -13.8238   12.1920 C   0  0  0  0  0  0  0  0  0  0  0  0
   -6.0685  -12.4809   12.2115 C   0  0  0  0  0  0  0  0  0  0  0  0
   -7.3985  -12.1066   12.1962 C   0  0  0  0  0  0  0  0  0  0  0  0
   -8.3993  -13.0598   12.1566 C   0  0  0  0  0  0  0  0  0  0  0  0
   -9.8471  -17.6527   11.7302 C   0  0  0  0  0  0  0  0  0  0  0  0
   -9.7672  -18.9399   11.1916 C   0  0  0  0  0  0  0  0  0  0  0  0
  -11.0708  -19.4707   11.4208 C   0  0  0  0  0  0  0  0  0  0  0  0
  -11.7448  -18.5369   12.0192 N   0  0  0  0  0  0  0  0  0  0  0  0
  -11.0960  -17.5360   12.2042 O   0  0  0  0  0  0  0  0  0  0  0  0
   -8.6203  -19.5865   10.5456 C   0  0  0  0  0  0  0  0  0  0  0  0
   -8.7139  -20.7302   10.1425 O   0  0  0  0  0  0  0  0  0  0  0  0
   -7.4620  -18.9125   10.3975 O   0  0  0  0  0  0  0  0  0  0  0  0
   -6.3379  -19.6464    9.8447 C   0  0  0  0  0  0  0  0  0  0  0  0
   -5.0437  -18.8717   10.1060 C   0  0  0  0  0  0  0  0  0  0  0  0
  1  2  1  0
  1 13  1  0
  2  3  2  0
  2  4  1  0
  4  5  2  0
  4 12  1  0
  5  6  1  0
  5  9  1  0
  6  7  2  0
  7  8  1  0
  8  9  1  0
  9 10  2  0
 10 11  1  0
 11 12  2  0
 13 14  2  0
 13 17  1  0
 14 15  1  0
 14 18  1  0
 15 16  2  0
 16 17  1  0
 18 19  2  0
 18 20  1  0
 20 21  1  0
 21 22  1  0
M  END
>  <Gold.Gold.Protein.RotatedWaterAtoms>  (350) 


>  <Gold.Id.Protein>  (350) 


>  <Gold.PLP.Chemscore.CHOScore>  (350) 
0.0000

>  <Gold.PLP.Chemscore.Hbond>  (350) 
2.2412

>  <Gold.PLP.Chemscore.Internal.Correction>  (350) 
0.0241

>  <Gold.PLP.Chemscore.Metal>  (350) 
0.0000

>  <Gold.PLP.Fitness>  (350) 
56.0066

>  <Gold.PLP.PLP>  (350) 
-49.7073

>  <Gold.PLP.ligand.clash>  (350) 
0.0000

>  <Gold.PLP.ligand.torsion>  (350) 
0.2241

>  <Gold.PLP.part.buried>  (350) 
-7.7009

>  <Gold.PLP.part.hbond>  (350) 
-4.1371

>  <Gold.PLP.part.metal>  (350) 
0.0000

>  <Gold.PLP.part.nonpolar>  (350) 
-37.8493

>  <Gold.PLP.part.repulsive>  (350) 
0.4592

>  <Gold.Protein.RotatedAtoms>  (350) 


>  <Gold.Protein.RotatedTorsions>  (350) 


>  <Gold.Protein.RotatedWaterAtoms>  (350) 


>  <Gold.Version>  (350) 
5.3.0

>  <PLP.Chemscore.CHOScore>  (350) 


>  <PLP.Chemscore.Hbond>  (350) 


>  <PLP.Chemscore.Internal.Correction>  (350) 


>  <PLP.Chemscore.Metal>  (350) 


>  <PLP.Fitness>  (350) 


>  <PLP.PLP>  (350) 


>  <PLP.ligand.clash>  (350) 


>  <PLP.ligand.torsion>  (350) 


>  <PLP.part.buried>  (350) 


>  <PLP.part.hbond>  (350) 


>  <PLP.part.metal>  (350) 


>  <PLP.part.nonpolar>  (350) 


>  <PLP.part.repulsive>  (350) 


>  <Version>  (350) 


$$$$
3350|Compound_2067|Compounds_3D_F|sdf|599|dock6|1
     RDKit          3D

 22 24  0  0  0  0  0  0  0  0999 V2000
   -8.8851  -16.7676   11.8831 N   0  0  0  0  0  0  0  0  0  0  0  0
   -9.0559  -15.4495   12.1079 C   0  0  0  0  0  0  0  0  0  0  0  0
  -10.1741  -14.9997   12.2621 O   0  0  0  0  0  0  0  0  0  0  0  0
   -7.8864  -14.5559   12.1666 C   0  0  0  0  0  0  0  0  0  0  0  0
   -6.5810  -15.0920   12.1592 C   0  0  0  0  0  0  0  0  0  0  0  0
   -6.0925  -16.3473   12.1071 N   0  0  0  0  0  0  0  0  0  0  0  0
   -4.7901  -16.3146   12.1271 C   0  0  0  0  0  0  0  0  0  0  0  0
   -4.3578  -15.0288   12.1931 N   0  0  0  0  0  0  0  0  0  0  0  0
   -5.4788  -14.2221   12.2156 C   0  0  0  0  0  0  0  0  0  0  0  0
   -5.6788  -12.8510   12.2769 C   0  0  0  0  0  0  0  0  0  0  0  0
   -6.9610  -12.3358   12.2835 C   0  0  0  0  0  0  0  0  0  0  0  0
   -8.0586  -13.1746   12.2245 C   0  0  0  0  0  0  0  0  0  0  0  0
   -9.9768  -17.6028   11.8231 C   0  0  0  0  0  0  0  0  0  0  0  0
  -10.0197  -18.9031   11.3124 C   0  0  0  0  0  0  0  0  0  0  0  0
  -11.3809  -19.2833   11.5027 C   0  0  0  0  0  0  0  0  0  0  0  0
  -11.9690  -18.2681   12.0576 N   0  0  0  0  0  0  0  0  0  0  0  0
  -11.2212  -17.3398   12.2477 O   0  0  0  0  0  0  0  0  0  0  0  0
   -8.9286  -19.6854   10.7223 C   0  0  0  0  0  0  0  0  0  0  0  0
   -9.1105  -20.8480   10.4148 O   0  0  0  0  0  0  0  0  0  0  0  0
   -7.7237  -19.1153   10.5193 O   0  0  0  0  0  0  0  0  0  0  0  0
   -6.7216  -19.9156    9.8391 C   0  0  0  0  0  0  0  0  0  0  0  0
   -5.3733  -19.1920    9.8835 C   0  0  0  0  0  0  0  0  0  0  0  0
  1  2  1  0
  1 13  1  0
  2  3  2  0
  2  4  1  0
  4  5  2  0
  4 12  1  0
  5  6  1  0
  5  9  1  0
  6  7  2  0
  7  8  1  0
  8  9  1  0
  9 10  2  0
 10 11  1  0
 11 12  2  0
 13 14  2  0
 13 17  1  0
 14 15  1  0
 14 18  1  0
 15 16  2  0
 16 17  1  0
 18 19  2  0
 18 20  1  0
 20 21  1  0
 21 22  1  0
M  END
>  <Gold.Gold.Protein.RotatedWaterAtoms>  (351) 


>  <Gold.Id.Protein>  (351) 


>  <Gold.PLP.Chemscore.CHOScore>  (351) 
0.0000

>  <Gold.PLP.Chemscore.Hbond>  (351) 
2.1500

>  <Gold.PLP.Chemscore.Internal.Correction>  (351) 
0.0241

>  <Gold.PLP.Chemscore.Metal>  (351) 
0.0000

>  <Gold.PLP.Fitness>  (351) 
55.8426

>  <Gold.PLP.PLP>  (351) 
-49.6462

>  <Gold.PLP.ligand.clash>  (351) 
0.0000

>  <Gold.PLP.ligand.torsion>  (351) 
0.1389

>  <Gold.PLP.part.buried>  (351) 
-7.1592

>  <Gold.PLP.part.hbond>  (351) 
-4.4470

>  <Gold.PLP.part.metal>  (351) 
0.0000

>  <Gold.PLP.part.nonpolar>  (351) 
-37.7730

>  <Gold.PLP.part.repulsive>  (351) 
0.4547

>  <Gold.Protein.RotatedAtoms>  (351) 


>  <Gold.Protein.RotatedTorsions>  (351) 


>  <Gold.Protein.RotatedWaterAtoms>  (351) 


>  <Gold.Version>  (351) 
5.3.0

>  <PLP.Chemscore.CHOScore>  (351) 


>  <PLP.Chemscore.Hbond>  (351) 


>  <PLP.Chemscore.Internal.Correction>  (351) 


>  <PLP.Chemscore.Metal>  (351) 


>  <PLP.Fitness>  (351) 


>  <PLP.PLP>  (351) 


>  <PLP.ligand.clash>  (351) 


>  <PLP.ligand.torsion>  (351) 


>  <PLP.part.buried>  (351) 


>  <PLP.part.hbond>  (351) 


>  <PLP.part.metal>  (351) 


>  <PLP.part.nonpolar>  (351) 


>  <PLP.part.repulsive>  (351) 


>  <Version>  (351) 


$$$$
3351|Compound_2067|Compounds_3D_F|sdf|599|dock7|1
     RDKit          3D

 22 24  0  0  0  0  0  0  0  0999 V2000
   -8.9420  -16.9428   11.6506 N   0  0  0  0  0  0  0  0  0  0  0  0
   -9.2018  -15.7394   12.1997 C   0  0  0  0  0  0  0  0  0  0  0  0
  -10.2900  -15.5194   12.6936 O   0  0  0  0  0  0  0  0  0  0  0  0
   -8.1658  -14.6922   12.2003 C   0  0  0  0  0  0  0  0  0  0  0  0
   -6.7992  -15.0442   12.1999 C   0  0  0  0  0  0  0  0  0  0  0  0
   -6.1432  -16.2218   12.1997 N   0  0  0  0  0  0  0  0  0  0  0  0
   -4.8576  -16.0101   12.2001 C   0  0  0  0  0  0  0  0  0  0  0  0
   -4.6056  -14.6755   12.1999 N   0  0  0  0  0  0  0  0  0  0  0  0
   -5.8267  -14.0298   12.2002 C   0  0  0  0  0  0  0  0  0  0  0  0
   -6.2129  -12.6977   12.2002 C   0  0  0  0  0  0  0  0  0  0  0  0
   -7.5536  -12.3632   12.2005 C   0  0  0  0  0  0  0  0  0  0  0  0
   -8.5258  -13.3463   12.1960 C   0  0  0  0  0  0  0  0  0  0  0  0
   -9.9102  -17.9202   11.6448 C   0  0  0  0  0  0  0  0  0  0  0  0
   -9.8223  -19.1942   11.0768 C   0  0  0  0  0  0  0  0  0  0  0  0
  -11.0952  -19.7684   11.3657 C   0  0  0  0  0  0  0  0  0  0  0  0
  -11.7624  -18.8668   12.0185 N   0  0  0  0  0  0  0  0  0  0  0  0
  -11.1341  -17.8502   12.1882 O   0  0  0  0  0  0  0  0  0  0  0  0
   -8.6941  -19.7935   10.3567 C   0  0  0  0  0  0  0  0  0  0  0  0
   -8.8523  -20.8198    9.7235 O   0  0  0  0  0  0  0  0  0  0  0  0
   -7.4811  -19.2060   10.3954 O   0  0  0  0  0  0  0  0  0  0  0  0
   -6.4077  -19.8605    9.6695 C   0  0  0  0  0  0  0  0  0  0  0  0
   -5.0653  -19.2538   10.0857 C   0  0  0  0  0  0  0  0  0  0  0  0
  1  2  1  0
  1 13  1  0
  2  3  2  0
  2  4  1  0
  4  5  2  0
  4 12  1  0
  5  6  1  0
  5  9  1  0
  6  7  2  0
  7  8  1  0
  8  9  1  0
  9 10  2  0
 10 11  1  0
 11 12  2  0
 13 14  2  0
 13 17  1  0
 14 15  1  0
 14 18  1  0
 15 16  2  0
 16 17  1  0
 18 19  2  0
 18 20  1  0
 20 21  1  0
 21 22  1  0
M  END
>  <Gold.Gold.Protein.RotatedWaterAtoms>  (352) 


>  <Gold.Id.Protein>  (352) 


>  <Gold.PLP.Chemscore.CHOScore>  (352) 
0.0000

>  <Gold.PLP.Chemscore.Hbond>  (352) 
2.8825

>  <Gold.PLP.Chemscore.Internal.Correction>  (352) 
0.0241

>  <Gold.PLP.Chemscore.Metal>  (352) 
0.0000

>  <Gold.PLP.Fitness>  (352) 
55.8483

>  <Gold.PLP.PLP>  (352) 
-48.0784

>  <Gold.PLP.ligand.clash>  (352) 
0.0000

>  <Gold.PLP.ligand.torsion>  (352) 
0.4508

>  <Gold.PLP.part.buried>  (352) 
-8.7923

>  <Gold.PLP.part.hbond>  (352) 
-5.4539

>  <Gold.PLP.part.metal>  (352) 
0.0000

>  <Gold.PLP.part.nonpolar>  (352) 
-36.8099

>  <Gold.PLP.part.repulsive>  (352) 
1.9834

>  <Gold.Protein.RotatedAtoms>  (352) 


>  <Gold.Protein.RotatedTorsions>  (352) 


>  <Gold.Protein.RotatedWaterAtoms>  (352) 


>  <Gold.Version>  (352) 
5.3.0

>  <PLP.Chemscore.CHOScore>  (352) 


>  <PLP.Chemscore.Hbond>  (352) 


>  <PLP.Chemscore.Internal.Correction>  (352) 


>  <PLP.Chemscore.Metal>  (352) 


>  <PLP.Fitness>  (352) 


>  <PLP.PLP>  (352) 


>  <PLP.ligand.clash>  (352) 


>  <PLP.ligand.torsion>  (352) 


>  <PLP.part.buried>  (352) 


>  <PLP.part.hbond>  (352) 


>  <PLP.part.metal>  (352) 


>  <PLP.part.nonpolar>  (352) 


>  <PLP.part.repulsive>  (352) 


>  <Version>  (352) 


$$$$
3352|Compound_2067|Compounds_3D_F|sdf|599|dock8|1
     RDKit          3D

 22 24  0  0  0  0  0  0  0  0999 V2000
   -8.4698  -15.2190   12.2017 N   0  0  0  0  0  0  0  0  0  0  0  0
   -8.6908  -14.1560   11.4028 C   0  0  0  0  0  0  0  0  0  0  0  0
   -9.4585  -14.2499   10.4655 O   0  0  0  0  0  0  0  0  0  0  0  0
   -8.0013  -12.8814   11.6671 C   0  0  0  0  0  0  0  0  0  0  0  0
   -6.7126  -12.8762   12.2419 C   0  0  0  0  0  0  0  0  0  0  0  0
   -5.8735  -13.8490   12.6502 N   0  0  0  0  0  0  0  0  0  0  0  0
   -4.7800  -13.3192   13.1205 C   0  0  0  0  0  0  0  0  0  0  0  0
   -4.8481  -11.9649   13.0429 N   0  0  0  0  0  0  0  0  0  0  0  0
   -6.0720  -11.6494   12.4857 C   0  0  0  0  0  0  0  0  0  0  0  0
   -6.7055  -10.4588   12.1614 C   0  0  0  0  0  0  0  0  0  0  0  0
   -7.9675  -10.4745   11.5988 C   0  0  0  0  0  0  0  0  0  0  0  0
   -8.6129  -11.6711   11.3472 C   0  0  0  0  0  0  0  0  0  0  0  0
   -9.1093  -16.4115   11.9532 C   0  0  0  0  0  0  0  0  0  0  0  0
   -8.5567  -17.5668   11.3934 C   0  0  0  0  0  0  0  0  0  0  0  0
   -9.6555  -18.4755   11.3704 C   0  0  0  0  0  0  0  0  0  0  0  0
  -10.6677  -17.8368   11.8720 N   0  0  0  0  0  0  0  0  0  0  0  0
  -10.3928  -16.7089   12.2029 O   0  0  0  0  0  0  0  0  0  0  0  0
   -7.1803  -17.7888   10.9385 C   0  0  0  0  0  0  0  0  0  0  0  0
   -6.9637  -18.5121    9.9850 O   0  0  0  0  0  0  0  0  0  0  0  0
   -6.1546  -17.1900   11.5767 O   0  0  0  0  0  0  0  0  0  0  0  0
   -4.8322  -17.3567   11.0015 C   0  0  0  0  0  0  0  0  0  0  0  0
   -3.7873  -16.7410   11.9355 C   0  0  0  0  0  0  0  0  0  0  0  0
  1  2  1  0
  1 13  1  0
  2  3  2  0
  2  4  1  0
  4  5  2  0
  4 12  1  0
  5  6  1  0
  5  9  1  0
  6  7  2  0
  7  8  1  0
  8  9  1  0
  9 10  2  0
 10 11  1  0
 11 12  2  0
 13 14  2  0
 13 17  1  0
 14 15  1  0
 14 18  1  0
 15 16  2  0
 16 17  1  0
 18 19  2  0
 18 20  1  0
 20 21  1  0
 21 22  1  0
M  END
>  <Gold.Gold.Protein.RotatedWaterAtoms>  (353) 


>  <Gold.Id.Protein>  (353) 


>  <Gold.PLP.Chemscore.CHOScore>  (353) 
0.8337

>  <Gold.PLP.Chemscore.Hbond>  (353) 
2.0000

>  <Gold.PLP.Chemscore.Internal.Correction>  (353) 
0.0241

>  <Gold.PLP.Chemscore.Metal>  (353) 
0.0000

>  <Gold.PLP.Fitness>  (353) 
61.1274

>  <Gold.PLP.PLP>  (353) 
-55.7901

>  <Gold.PLP.ligand.clash>  (353) 
0.0000

>  <Gold.PLP.ligand.torsion>  (353) 
1.5939

>  <Gold.PLP.part.buried>  (353) 
-7.1415

>  <Gold.PLP.part.hbond>  (353) 
-5.2746

>  <Gold.PLP.part.metal>  (353) 
0.0000

>  <Gold.PLP.part.nonpolar>  (353) 
-46.5916

>  <Gold.PLP.part.repulsive>  (353) 
3.5999

>  <Gold.Protein.RotatedAtoms>  (353) 


>  <Gold.Protein.RotatedTorsions>  (353) 


>  <Gold.Protein.RotatedWaterAtoms>  (353) 


>  <Gold.Version>  (353) 
5.3.0

>  <PLP.Chemscore.CHOScore>  (353) 


>  <PLP.Chemscore.Hbond>  (353) 


>  <PLP.Chemscore.Internal.Correction>  (353) 


>  <PLP.Chemscore.Metal>  (353) 


>  <PLP.Fitness>  (353) 


>  <PLP.PLP>  (353) 


>  <PLP.ligand.clash>  (353) 


>  <PLP.ligand.torsion>  (353) 


>  <PLP.part.buried>  (353) 


>  <PLP.part.hbond>  (353) 


>  <PLP.part.metal>  (353) 


>  <PLP.part.nonpolar>  (353) 


>  <PLP.part.repulsive>  (353) 


>  <Version>  (353) 


$$$$
3353|Compound_2067|Compounds_3D_F|sdf|599|dock9|1
     RDKit          3D

 22 24  0  0  0  0  0  0  0  0999 V2000
   -8.7970  -16.6408   11.7856 N   0  0  0  0  0  0  0  0  0  0  0  0
   -9.0306  -15.3521   12.1045 C   0  0  0  0  0  0  0  0  0  0  0  0
  -10.1609  -14.9841   12.3564 O   0  0  0  0  0  0  0  0  0  0  0  0
   -7.9148  -14.3913   12.1473 C   0  0  0  0  0  0  0  0  0  0  0  0
   -6.5808  -14.8511   12.1609 C   0  0  0  0  0  0  0  0  0  0  0  0
   -6.0205  -16.0770   12.1432 N   0  0  0  0  0  0  0  0  0  0  0  0
   -4.7223  -15.9687   12.1698 C   0  0  0  0  0  0  0  0  0  0  0  0
   -4.3652  -14.6588   12.2059 N   0  0  0  0  0  0  0  0  0  0  0  0
   -5.5309  -13.9179   12.2016 C   0  0  0  0  0  0  0  0  0  0  0  0
   -5.8100  -12.5595   12.2272 C   0  0  0  0  0  0  0  0  0  0  0  0
   -7.1197  -12.1192   12.2136 C   0  0  0  0  0  0  0  0  0  0  0  0
   -8.1667  -13.0211   12.1694 C   0  0  0  0  0  0  0  0  0  0  0  0
   -9.8387  -17.5384   11.7404 C   0  0  0  0  0  0  0  0  0  0  0  0
   -9.8170  -18.8333   11.2147 C   0  0  0  0  0  0  0  0  0  0  0  0
  -11.1486  -19.2954   11.4315 C   0  0  0  0  0  0  0  0  0  0  0  0
  -11.7821  -18.3230   12.0122 N   0  0  0  0  0  0  0  0  0  0  0  0
  -11.0860  -17.3542   12.1966 O   0  0  0  0  0  0  0  0  0  0  0  0
   -8.6960  -19.5431   10.5901 C   0  0  0  0  0  0  0  0  0  0  0  0
   -7.6830  -18.9391   10.2929 O   0  0  0  0  0  0  0  0  0  0  0  0
   -8.7877  -20.8660   10.3464 O   0  0  0  0  0  0  0  0  0  0  0  0
   -7.6207  -21.5141    9.7757 C   0  0  0  0  0  0  0  0  0  0  0  0
   -7.8252  -23.0311    9.7803 C   0  0  0  0  0  0  0  0  0  0  0  0
  1  2  1  0
  1 13  1  0
  2  3  2  0
  2  4  1  0
  4  5  2  0
  4 12  1  0
  5  6  1  0
  5  9  1  0
  6  7  2  0
  7  8  1  0
  8  9  1  0
  9 10  2  0
 10 11  1  0
 11 12  2  0
 13 14  2  0
 13 17  1  0
 14 15  1  0
 14 18  1  0
 15 16  2  0
 16 17  1  0
 18 19  2  0
 18 20  1  0
 20 21  1  0
 21 22  1  0
M  END
>  <Gold.Gold.Protein.RotatedWaterAtoms>  (354) 


>  <Gold.Id.Protein>  (354) 


>  <Gold.PLP.Chemscore.CHOScore>  (354) 
0.0000

>  <Gold.PLP.Chemscore.Hbond>  (354) 
2.1292

>  <Gold.PLP.Chemscore.Internal.Correction>  (354) 
0.0241

>  <Gold.PLP.Chemscore.Metal>  (354) 
0.0000

>  <Gold.PLP.Fitness>  (354) 
55.3777

>  <Gold.PLP.PLP>  (354) 
-49.3934

>  <Gold.PLP.ligand.clash>  (354) 
0.0000

>  <Gold.PLP.ligand.torsion>  (354) 
0.2137

>  <Gold.PLP.part.buried>  (354) 
-8.1402

>  <Gold.PLP.part.hbond>  (354) 
-4.8905

>  <Gold.PLP.part.metal>  (354) 
0.0000

>  <Gold.PLP.part.nonpolar>  (354) 
-37.6037

>  <Gold.PLP.part.repulsive>  (354) 
0.4779

>  <Gold.Protein.RotatedAtoms>  (354) 


>  <Gold.Protein.RotatedTorsions>  (354) 


>  <Gold.Protein.RotatedWaterAtoms>  (354) 


>  <Gold.Version>  (354) 
5.3.0

>  <PLP.Chemscore.CHOScore>  (354) 


>  <PLP.Chemscore.Hbond>  (354) 


>  <PLP.Chemscore.Internal.Correction>  (354) 


>  <PLP.Chemscore.Metal>  (354) 


>  <PLP.Fitness>  (354) 


>  <PLP.PLP>  (354) 


>  <PLP.ligand.clash>  (354) 


>  <PLP.ligand.torsion>  (354) 


>  <PLP.part.buried>  (354) 


>  <PLP.part.hbond>  (354) 


>  <PLP.part.metal>  (354) 


>  <PLP.part.nonpolar>  (354) 


>  <PLP.part.repulsive>  (354) 


>  <Version>  (354) 


$$$$
3354|Compound_2069|Compounds_3D_F|sdf|600|dock1|1
     RDKit          3D

 17 19  0  0  0  0  0  0  0  0999 V2000
   -8.7263  -16.9285   11.7152 N   0  0  0  0  0  0  0  0  0  0  0  0
   -8.9686  -15.6377   12.0186 C   0  0  0  0  0  0  0  0  0  0  0  0
  -10.1103  -15.2599   12.1999 O   0  0  0  0  0  0  0  0  0  0  0  0
   -7.8496  -14.6850   12.1305 C   0  0  0  0  0  0  0  0  0  0  0  0
   -6.5178  -15.1490   12.1203 C   0  0  0  0  0  0  0  0  0  0  0  0
   -5.9608  -16.3727   12.0233 N   0  0  0  0  0  0  0  0  0  0  0  0
   -4.6625  -16.2704   12.0634 C   0  0  0  0  0  0  0  0  0  0  0  0
   -4.3019  -14.9668   12.1880 N   0  0  0  0  0  0  0  0  0  0  0  0
   -5.4656  -14.2238   12.2279 C   0  0  0  0  0  0  0  0  0  0  0  0
   -5.7411  -12.8693   12.3430 C   0  0  0  0  0  0  0  0  0  0  0  0
   -7.0495  -12.4251   12.3530 C   0  0  0  0  0  0  0  0  0  0  0  0
   -8.0988  -13.3188   12.2420 C   0  0  0  0  0  0  0  0  0  0  0  0
   -9.7795  -17.8248   11.6047 C   0  0  0  0  0  0  0  0  0  0  0  0
  -10.9815  -17.6834   12.1164 N   0  0  0  0  0  0  0  0  0  0  0  0
  -11.7160  -18.6962   11.8267 N   0  0  0  0  0  0  0  0  0  0  0  0
  -11.0494  -19.5460   11.1214 N   0  0  0  0  0  0  0  0  0  0  0  0
   -9.7631  -19.0064   10.9461 N   0  0  0  0  0  0  0  0  0  0  0  0
  1  2  1  0
  1 13  1  0
  2  3  2  0
  2  4  1  0
  4  5  2  0
  4 12  1  0
  5  6  1  0
  5  9  1  0
  6  7  2  0
  7  8  1  0
  8  9  1  0
  9 10  2  0
 10 11  1  0
 11 12  2  0
 13 14  2  0
 13 17  1  0
 14 15  1  0
 15 16  2  0
 16 17  1  0
M  END
>  <Gold.Gold.Protein.RotatedWaterAtoms>  (355) 


>  <Gold.Id.Protein>  (355) 


>  <Gold.PLP.Chemscore.CHOScore>  (355) 
0.0000

>  <Gold.PLP.Chemscore.Hbond>  (355) 
2.4964

>  <Gold.PLP.Chemscore.Internal.Correction>  (355) 
0.0001

>  <Gold.PLP.Chemscore.Metal>  (355) 
0.0000

>  <Gold.PLP.Fitness>  (355) 
47.8056

>  <Gold.PLP.PLP>  (355) 
-40.5892

>  <Gold.PLP.ligand.clash>  (355) 
0.0000

>  <Gold.PLP.ligand.torsion>  (355) 
0.1365

>  <Gold.PLP.part.buried>  (355) 
-9.0930

>  <Gold.PLP.part.hbond>  (355) 
-3.1638

>  <Gold.PLP.part.metal>  (355) 
0.0000

>  <Gold.PLP.part.nonpolar>  (355) 
-29.0782

>  <Gold.PLP.part.repulsive>  (355) 
0.4424

>  <Gold.Protein.RotatedAtoms>  (355) 


>  <Gold.Protein.RotatedTorsions>  (355) 


>  <Gold.Protein.RotatedWaterAtoms>  (355) 


>  <Gold.Version>  (355) 
5.3.0

>  <PLP.Chemscore.CHOScore>  (355) 


>  <PLP.Chemscore.Hbond>  (355) 


>  <PLP.Chemscore.Internal.Correction>  (355) 


>  <PLP.Chemscore.Metal>  (355) 


>  <PLP.Fitness>  (355) 


>  <PLP.PLP>  (355) 


>  <PLP.ligand.clash>  (355) 


>  <PLP.ligand.torsion>  (355) 


>  <PLP.part.buried>  (355) 


>  <PLP.part.hbond>  (355) 


>  <PLP.part.metal>  (355) 


>  <PLP.part.nonpolar>  (355) 


>  <PLP.part.repulsive>  (355) 


>  <Version>  (355) 


$$$$
3355|Compound_2069|Compounds_3D_F|sdf|600|dock2|1
     RDKit          3D

 17 19  0  0  0  0  0  0  0  0999 V2000
   -9.1213  -15.9566   11.8692 N   0  0  0  0  0  0  0  0  0  0  0  0
   -9.1829  -14.6588   12.2285 C   0  0  0  0  0  0  0  0  0  0  0  0
  -10.2451  -14.1709   12.5641 O   0  0  0  0  0  0  0  0  0  0  0  0
   -7.9627  -13.8322   12.2145 C   0  0  0  0  0  0  0  0  0  0  0  0
   -6.6913  -14.4425   12.2085 C   0  0  0  0  0  0  0  0  0  0  0  0
   -6.2759  -15.7248   12.2127 N   0  0  0  0  0  0  0  0  0  0  0  0
   -4.9736  -15.7664   12.2035 C   0  0  0  0  0  0  0  0  0  0  0  0
   -4.4679  -14.5059   12.1912 N   0  0  0  0  0  0  0  0  0  0  0  0
   -5.5406  -13.6358   12.1948 C   0  0  0  0  0  0  0  0  0  0  0  0
   -5.6614  -12.2541   12.1876 C   0  0  0  0  0  0  0  0  0  0  0  0
   -6.9118  -11.6662   12.1944 C   0  0  0  0  0  0  0  0  0  0  0  0
   -8.0562  -12.4422   12.2016 C   0  0  0  0  0  0  0  0  0  0  0  0
  -10.2704  -16.7341   11.8774 C   0  0  0  0  0  0  0  0  0  0  0  0
  -11.2276  -16.7025   12.7770 N   0  0  0  0  0  0  0  0  0  0  0  0
  -12.1469  -17.5506   12.4859 N   0  0  0  0  0  0  0  0  0  0  0  0
  -11.8503  -18.1773   11.3982 N   0  0  0  0  0  0  0  0  0  0  0  0
  -10.6177  -17.6639   10.9582 N   0  0  0  0  0  0  0  0  0  0  0  0
  1  2  1  0
  1 13  1  0
  2  3  2  0
  2  4  1  0
  4  5  2  0
  4 12  1  0
  5  6  1  0
  5  9  1  0
  6  7  2  0
  7  8  1  0
  8  9  1  0
  9 10  2  0
 10 11  1  0
 11 12  2  0
 13 14  2  0
 13 17  1  0
 14 15  1  0
 15 16  2  0
 16 17  1  0
M  END
>  <Gold.Gold.Protein.RotatedWaterAtoms>  (356) 


>  <Gold.Id.Protein>  (356) 


>  <Gold.PLP.Chemscore.CHOScore>  (356) 
0.0000

>  <Gold.PLP.Chemscore.Hbond>  (356) 
2.9913

>  <Gold.PLP.Chemscore.Internal.Correction>  (356) 
0.0001

>  <Gold.PLP.Chemscore.Metal>  (356) 
0.0000

>  <Gold.PLP.Fitness>  (356) 
51.1617

>  <Gold.PLP.PLP>  (356) 
-43.1049

>  <Gold.PLP.ligand.clash>  (356) 
0.0000

>  <Gold.PLP.ligand.torsion>  (356) 
0.4585

>  <Gold.PLP.part.buried>  (356) 
0.6134

>  <Gold.PLP.part.hbond>  (356) 
-11.5946

>  <Gold.PLP.part.metal>  (356) 
0.0000

>  <Gold.PLP.part.nonpolar>  (356) 
-31.5236

>  <Gold.PLP.part.repulsive>  (356) 
0.7267

>  <Gold.Protein.RotatedAtoms>  (356) 


>  <Gold.Protein.RotatedTorsions>  (356) 


>  <Gold.Protein.RotatedWaterAtoms>  (356) 


>  <Gold.Version>  (356) 
5.3.0

>  <PLP.Chemscore.CHOScore>  (356) 


>  <PLP.Chemscore.Hbond>  (356) 


>  <PLP.Chemscore.Internal.Correction>  (356) 


>  <PLP.Chemscore.Metal>  (356) 


>  <PLP.Fitness>  (356) 


>  <PLP.PLP>  (356) 


>  <PLP.ligand.clash>  (356) 


>  <PLP.ligand.torsion>  (356) 


>  <PLP.part.buried>  (356) 


>  <PLP.part.hbond>  (356) 


>  <PLP.part.metal>  (356) 


>  <PLP.part.nonpolar>  (356) 


>  <PLP.part.repulsive>  (356) 


>  <Version>  (356) 


$$$$
3356|Compound_2069|Compounds_3D_F|sdf|600|dock3|1
     RDKit          3D

 17 19  0  0  0  0  0  0  0  0999 V2000
   -8.6014  -15.7631   12.3189 N   0  0  0  0  0  0  0  0  0  0  0  0
   -8.7278  -14.4382   12.1052 C   0  0  0  0  0  0  0  0  0  0  0  0
   -9.8115  -13.9705   11.8122 O   0  0  0  0  0  0  0  0  0  0  0  0
   -7.5524  -13.5573   12.2268 C   0  0  0  0  0  0  0  0  0  0  0  0
   -7.6552  -12.1873   11.9081 C   0  0  0  0  0  0  0  0  0  0  0  0
   -8.6660  -11.4069   11.4764 N   0  0  0  0  0  0  0  0  0  0  0  0
   -8.2448  -10.1831   11.3262 C   0  0  0  0  0  0  0  0  0  0  0  0
   -6.9297  -10.0998   11.6555 N   0  0  0  0  0  0  0  0  0  0  0  0
   -6.5224  -11.3650   12.0313 C   0  0  0  0  0  0  0  0  0  0  0  0
   -5.3183  -11.9018   12.4623 C   0  0  0  0  0  0  0  0  0  0  0  0
   -5.2279  -13.2456   12.7712 C   0  0  0  0  0  0  0  0  0  0  0  0
   -6.3325  -14.0702   12.6625 C   0  0  0  0  0  0  0  0  0  0  0  0
   -9.7063  -16.5937   12.1997 C   0  0  0  0  0  0  0  0  0  0  0  0
  -10.9056  -16.3720   12.6889 N   0  0  0  0  0  0  0  0  0  0  0  0
  -11.6966  -17.3407   12.3973 N   0  0  0  0  0  0  0  0  0  0  0  0
  -11.0725  -18.2384   11.7128 N   0  0  0  0  0  0  0  0  0  0  0  0
   -9.7524  -17.7816   11.5541 N   0  0  0  0  0  0  0  0  0  0  0  0
  1  2  1  0
  1 13  1  0
  2  3  2  0
  2  4  1  0
  4  5  2  0
  4 12  1  0
  5  6  1  0
  5  9  1  0
  6  7  2  0
  7  8  1  0
  8  9  1  0
  9 10  2  0
 10 11  1  0
 11 12  2  0
 13 14  2  0
 13 17  1  0
 14 15  1  0
 15 16  2  0
 16 17  1  0
M  END
>  <Gold.Gold.Protein.RotatedWaterAtoms>  (357) 


>  <Gold.Id.Protein>  (357) 


>  <Gold.PLP.Chemscore.CHOScore>  (357) 
0.9111

>  <Gold.PLP.Chemscore.Hbond>  (357) 
1.8540

>  <Gold.PLP.Chemscore.Internal.Correction>  (357) 
0.0001

>  <Gold.PLP.Chemscore.Metal>  (357) 
0.0000

>  <Gold.PLP.Fitness>  (357) 
51.1853

>  <Gold.PLP.PLP>  (357) 
-43.6763

>  <Gold.PLP.ligand.clash>  (357) 
0.0000

>  <Gold.PLP.ligand.torsion>  (357) 
0.3932

>  <Gold.PLP.part.buried>  (357) 
-0.4654

>  <Gold.PLP.part.hbond>  (357) 
-7.4876

>  <Gold.PLP.part.metal>  (357) 
0.0000

>  <Gold.PLP.part.nonpolar>  (357) 
-37.2662

>  <Gold.PLP.part.repulsive>  (357) 
0.8995

>  <Gold.Protein.RotatedAtoms>  (357) 


>  <Gold.Protein.RotatedTorsions>  (357) 


>  <Gold.Protein.RotatedWaterAtoms>  (357) 


>  <Gold.Version>  (357) 
5.3.0

>  <PLP.Chemscore.CHOScore>  (357) 


>  <PLP.Chemscore.Hbond>  (357) 


>  <PLP.Chemscore.Internal.Correction>  (357) 


>  <PLP.Chemscore.Metal>  (357) 


>  <PLP.Fitness>  (357) 


>  <PLP.PLP>  (357) 


>  <PLP.ligand.clash>  (357) 


>  <PLP.ligand.torsion>  (357) 


>  <PLP.part.buried>  (357) 


>  <PLP.part.hbond>  (357) 


>  <PLP.part.metal>  (357) 


>  <PLP.part.nonpolar>  (357) 


>  <PLP.part.repulsive>  (357) 


>  <Version>  (357) 


$$$$
3357|Compound_2069|Compounds_3D_F|sdf|600|dock4|1
     RDKit          3D

 17 19  0  0  0  0  0  0  0  0999 V2000
   -8.8146  -17.2536   11.6258 N   0  0  0  0  0  0  0  0  0  0  0  0
   -9.0392  -16.0161   12.1108 C   0  0  0  0  0  0  0  0  0  0  0  0
  -10.1462  -15.7122   12.5122 O   0  0  0  0  0  0  0  0  0  0  0  0
   -7.9426  -15.0322   12.1543 C   0  0  0  0  0  0  0  0  0  0  0  0
   -6.6001  -15.4643   12.1562 C   0  0  0  0  0  0  0  0  0  0  0  0
   -6.0144  -16.6779   12.1246 N   0  0  0  0  0  0  0  0  0  0  0  0
   -4.7186  -16.5426   12.1442 C   0  0  0  0  0  0  0  0  0  0  0  0
   -4.3888  -15.2258   12.1883 N   0  0  0  0  0  0  0  0  0  0  0  0
   -5.5697  -14.5095   12.1979 C   0  0  0  0  0  0  0  0  0  0  0  0
   -5.8771  -13.1576   12.2368 C   0  0  0  0  0  0  0  0  0  0  0  0
   -7.1958  -12.7448   12.2355 C   0  0  0  0  0  0  0  0  0  0  0  0
   -8.2239  -13.6681   12.1886 C   0  0  0  0  0  0  0  0  0  0  0  0
   -9.8475  -18.1788   11.5798 C   0  0  0  0  0  0  0  0  0  0  0  0
  -10.9997  -18.0937   12.2057 N   0  0  0  0  0  0  0  0  0  0  0  0
  -11.7289  -19.1188   11.9474 N   0  0  0  0  0  0  0  0  0  0  0  0
  -11.1074  -19.9219   11.1519 N   0  0  0  0  0  0  0  0  0  0  0  0
   -9.8592  -19.3356   10.8786 N   0  0  0  0  0  0  0  0  0  0  0  0
  1  2  1  0
  1 13  1  0
  2  3  2  0
  2  4  1  0
  4  5  2  0
  4 12  1  0
  5  6  1  0
  5  9  1  0
  6  7  2  0
  7  8  1  0
  8  9  1  0
  9 10  2  0
 10 11  1  0
 11 12  2  0
 13 14  2  0
 13 17  1  0
 14 15  1  0
 15 16  2  0
 16 17  1  0
M  END
>  <Gold.Gold.Protein.RotatedWaterAtoms>  (358) 


>  <Gold.Id.Protein>  (358) 


>  <Gold.PLP.Chemscore.CHOScore>  (358) 
0.0000

>  <Gold.PLP.Chemscore.Hbond>  (358) 
2.9175

>  <Gold.PLP.Chemscore.Internal.Correction>  (358) 
0.0001

>  <Gold.PLP.Chemscore.Metal>  (358) 
0.0000

>  <Gold.PLP.Fitness>  (358) 
47.5913

>  <Gold.PLP.PLP>  (358) 
-39.3864

>  <Gold.PLP.ligand.clash>  (358) 
0.0000

>  <Gold.PLP.ligand.torsion>  (358) 
0.2739

>  <Gold.PLP.part.buried>  (358) 
-9.4606

>  <Gold.PLP.part.hbond>  (358) 
-3.9176

>  <Gold.PLP.part.metal>  (358) 
0.0000

>  <Gold.PLP.part.nonpolar>  (358) 
-28.4367

>  <Gold.PLP.part.repulsive>  (358) 
1.0610

>  <Gold.Protein.RotatedAtoms>  (358) 


>  <Gold.Protein.RotatedTorsions>  (358) 


>  <Gold.Protein.RotatedWaterAtoms>  (358) 


>  <Gold.Version>  (358) 
5.3.0

>  <PLP.Chemscore.CHOScore>  (358) 


>  <PLP.Chemscore.Hbond>  (358) 


>  <PLP.Chemscore.Internal.Correction>  (358) 


>  <PLP.Chemscore.Metal>  (358) 


>  <PLP.Fitness>  (358) 


>  <PLP.PLP>  (358) 


>  <PLP.ligand.clash>  (358) 


>  <PLP.ligand.torsion>  (358) 


>  <PLP.part.buried>  (358) 


>  <PLP.part.hbond>  (358) 


>  <PLP.part.metal>  (358) 


>  <PLP.part.nonpolar>  (358) 


>  <PLP.part.repulsive>  (358) 


>  <Version>  (358) 


$$$$
3358|Compound_2069|Compounds_3D_F|sdf|600|dock5|1
     RDKit          3D

 17 19  0  0  0  0  0  0  0  0999 V2000
   -8.7653  -17.0013   11.7054 N   0  0  0  0  0  0  0  0  0  0  0  0
   -8.9865  -15.7075   12.0122 C   0  0  0  0  0  0  0  0  0  0  0  0
  -10.1199  -15.3163   12.2157 O   0  0  0  0  0  0  0  0  0  0  0  0
   -7.8545  -14.7678   12.1010 C   0  0  0  0  0  0  0  0  0  0  0  0
   -6.5297  -15.2511   12.1177 C   0  0  0  0  0  0  0  0  0  0  0  0
   -5.9900  -16.4853   12.0671 N   0  0  0  0  0  0  0  0  0  0  0  0
   -4.6906  -16.4005   12.1146 C   0  0  0  0  0  0  0  0  0  0  0  0
   -4.3119  -15.0987   12.1977 N   0  0  0  0  0  0  0  0  0  0  0  0
   -5.4648  -14.3380   12.2025 C   0  0  0  0  0  0  0  0  0  0  0  0
   -5.7213  -12.9765   12.2690 C   0  0  0  0  0  0  0  0  0  0  0  0
   -7.0230  -12.5134   12.2529 C   0  0  0  0  0  0  0  0  0  0  0  0
   -8.0844  -13.3951   12.1637 C   0  0  0  0  0  0  0  0  0  0  0  0
   -9.8309  -17.8854   11.6167 C   0  0  0  0  0  0  0  0  0  0  0  0
  -11.0335  -17.7105   12.1163 N   0  0  0  0  0  0  0  0  0  0  0  0
  -11.7810  -18.7212   11.8541 N   0  0  0  0  0  0  0  0  0  0  0  0
  -11.1230  -19.6025   11.1802 N   0  0  0  0  0  0  0  0  0  0  0  0
   -9.8279  -19.0873   10.9959 N   0  0  0  0  0  0  0  0  0  0  0  0
  1  2  1  0
  1 13  1  0
  2  3  2  0
  2  4  1  0
  4  5  2  0
  4 12  1  0
  5  6  1  0
  5  9  1  0
  6  7  2  0
  7  8  1  0
  8  9  1  0
  9 10  2  0
 10 11  1  0
 11 12  2  0
 13 14  2  0
 13 17  1  0
 14 15  1  0
 15 16  2  0
 16 17  1  0
M  END
>  <Gold.Gold.Protein.RotatedWaterAtoms>  (359) 


>  <Gold.Id.Protein>  (359) 


>  <Gold.PLP.Chemscore.CHOScore>  (359) 
0.0000

>  <Gold.PLP.Chemscore.Hbond>  (359) 
2.5176

>  <Gold.PLP.Chemscore.Internal.Correction>  (359) 
0.0001

>  <Gold.PLP.Chemscore.Metal>  (359) 
0.0000

>  <Gold.PLP.Fitness>  (359) 
47.7783

>  <Gold.PLP.PLP>  (359) 
-40.5091

>  <Gold.PLP.ligand.clash>  (359) 
0.0000

>  <Gold.PLP.ligand.torsion>  (359) 
0.1418

>  <Gold.PLP.part.buried>  (359) 
-9.0356

>  <Gold.PLP.part.hbond>  (359) 
-3.2268

>  <Gold.PLP.part.metal>  (359) 
0.0000

>  <Gold.PLP.part.nonpolar>  (359) 
-28.8664

>  <Gold.PLP.part.repulsive>  (359) 
0.4241

>  <Gold.Protein.RotatedAtoms>  (359) 


>  <Gold.Protein.RotatedTorsions>  (359) 


>  <Gold.Protein.RotatedWaterAtoms>  (359) 


>  <Gold.Version>  (359) 
5.3.0

>  <PLP.Chemscore.CHOScore>  (359) 


>  <PLP.Chemscore.Hbond>  (359) 


>  <PLP.Chemscore.Internal.Correction>  (359) 


>  <PLP.Chemscore.Metal>  (359) 


>  <PLP.Fitness>  (359) 


>  <PLP.PLP>  (359) 


>  <PLP.ligand.clash>  (359) 


>  <PLP.ligand.torsion>  (359) 


>  <PLP.part.buried>  (359) 


>  <PLP.part.hbond>  (359) 


>  <PLP.part.metal>  (359) 


>  <PLP.part.nonpolar>  (359) 


>  <PLP.part.repulsive>  (359) 


>  <Version>  (359) 


$$$$
3359|Compound_2069|Compounds_3D_F|sdf|600|dock6|1
     RDKit          3D

 17 19  0  0  0  0  0  0  0  0999 V2000
   -8.9915  -16.9407   11.5959 N   0  0  0  0  0  0  0  0  0  0  0  0
   -9.2095  -15.7194   12.1230 C   0  0  0  0  0  0  0  0  0  0  0  0
  -10.3050  -15.4367   12.5693 O   0  0  0  0  0  0  0  0  0  0  0  0
   -8.1200  -14.7274   12.1583 C   0  0  0  0  0  0  0  0  0  0  0  0
   -6.7745  -15.1500   12.1686 C   0  0  0  0  0  0  0  0  0  0  0  0
   -6.1803  -16.3598   12.1523 N   0  0  0  0  0  0  0  0  0  0  0  0
   -4.8855  -16.2153   12.1736 C   0  0  0  0  0  0  0  0  0  0  0  0
   -4.5650  -14.8958   12.2037 N   0  0  0  0  0  0  0  0  0  0  0  0
   -5.7509  -14.1877   12.2020 C   0  0  0  0  0  0  0  0  0  0  0  0
   -6.0678  -12.8376   12.2247 C   0  0  0  0  0  0  0  0  0  0  0  0
   -7.3893  -12.4340   12.2153 C   0  0  0  0  0  0  0  0  0  0  0  0
   -8.4109  -13.3650   12.1763 C   0  0  0  0  0  0  0  0  0  0  0  0
  -10.0180  -17.8733   11.5578 C   0  0  0  0  0  0  0  0  0  0  0  0
  -11.1455  -17.8206   12.2304 N   0  0  0  0  0  0  0  0  0  0  0  0
  -11.8760  -18.8429   11.9651 N   0  0  0  0  0  0  0  0  0  0  0  0
  -11.2796  -19.6123   11.1188 N   0  0  0  0  0  0  0  0  0  0  0  0
  -10.0477  -19.0054   10.8178 N   0  0  0  0  0  0  0  0  0  0  0  0
  1  2  1  0
  1 13  1  0
  2  3  2  0
  2  4  1  0
  4  5  2  0
  4 12  1  0
  5  6  1  0
  5  9  1  0
  6  7  2  0
  7  8  1  0
  8  9  1  0
  9 10  2  0
 10 11  1  0
 11 12  2  0
 13 14  2  0
 13 17  1  0
 14 15  1  0
 15 16  2  0
 16 17  1  0
M  END
>  <Gold.Gold.Protein.RotatedWaterAtoms>  (360) 


>  <Gold.Id.Protein>  (360) 


>  <Gold.PLP.Chemscore.CHOScore>  (360) 
0.0000

>  <Gold.PLP.Chemscore.Hbond>  (360) 
2.6578

>  <Gold.PLP.Chemscore.Internal.Correction>  (360) 
0.0001

>  <Gold.PLP.Chemscore.Metal>  (360) 
0.0000

>  <Gold.PLP.Fitness>  (360) 
47.6698

>  <Gold.PLP.PLP>  (360) 
-40.3723

>  <Gold.PLP.ligand.clash>  (360) 
0.0000

>  <Gold.PLP.ligand.torsion>  (360) 
0.3380

>  <Gold.PLP.part.buried>  (360) 
-7.5231

>  <Gold.PLP.part.hbond>  (360) 
-5.0784

>  <Gold.PLP.part.metal>  (360) 
0.0000

>  <Gold.PLP.part.nonpolar>  (360) 
-29.1115

>  <Gold.PLP.part.repulsive>  (360) 
1.2732

>  <Gold.Protein.RotatedAtoms>  (360) 


>  <Gold.Protein.RotatedTorsions>  (360) 


>  <Gold.Protein.RotatedWaterAtoms>  (360) 


>  <Gold.Version>  (360) 
5.3.0

>  <PLP.Chemscore.CHOScore>  (360) 


>  <PLP.Chemscore.Hbond>  (360) 


>  <PLP.Chemscore.Internal.Correction>  (360) 


>  <PLP.Chemscore.Metal>  (360) 


>  <PLP.Fitness>  (360) 


>  <PLP.PLP>  (360) 


>  <PLP.ligand.clash>  (360) 


>  <PLP.ligand.torsion>  (360) 


>  <PLP.part.buried>  (360) 


>  <PLP.part.hbond>  (360) 


>  <PLP.part.metal>  (360) 


>  <PLP.part.nonpolar>  (360) 


>  <PLP.part.repulsive>  (360) 


>  <Version>  (360) 


$$$$
3360|Compound_2069|Compounds_3D_F|sdf|600|dock7|1
     RDKit          3D

 17 19  0  0  0  0  0  0  0  0999 V2000
   -8.8790  -17.0627   11.7597 N   0  0  0  0  0  0  0  0  0  0  0  0
   -9.0645  -15.7739   12.1085 C   0  0  0  0  0  0  0  0  0  0  0  0
  -10.1824  -15.3679   12.3624 O   0  0  0  0  0  0  0  0  0  0  0  0
   -7.9122  -14.8578   12.1821 C   0  0  0  0  0  0  0  0  0  0  0  0
   -6.5973  -15.3672   12.1613 C   0  0  0  0  0  0  0  0  0  0  0  0
   -6.0836  -16.6109   12.0825 N   0  0  0  0  0  0  0  0  0  0  0  0
   -4.7820  -16.5522   12.1002 C   0  0  0  0  0  0  0  0  0  0  0  0
   -4.3757  -15.2593   12.1905 N   0  0  0  0  0  0  0  0  0  0  0  0
   -5.5128  -14.4763   12.2322 C   0  0  0  0  0  0  0  0  0  0  0  0
   -5.7405  -13.1110   12.3219 C   0  0  0  0  0  0  0  0  0  0  0  0
   -7.0328  -12.6223   12.3425 C   0  0  0  0  0  0  0  0  0  0  0  0
   -8.1133  -13.4818   12.2674 C   0  0  0  0  0  0  0  0  0  0  0  0
   -9.9638  -17.9245   11.6854 C   0  0  0  0  0  0  0  0  0  0  0  0
  -11.1650  -17.7109   12.1733 N   0  0  0  0  0  0  0  0  0  0  0  0
  -11.9337  -18.7104   11.9305 N   0  0  0  0  0  0  0  0  0  0  0  0
  -11.2920  -19.6220   11.2814 N   0  0  0  0  0  0  0  0  0  0  0  0
   -9.9846  -19.1405   11.0930 N   0  0  0  0  0  0  0  0  0  0  0  0
  1  2  1  0
  1 13  1  0
  2  3  2  0
  2  4  1  0
  4  5  2  0
  4 12  1  0
  5  6  1  0
  5  9  1  0
  6  7  2  0
  7  8  1  0
  8  9  1  0
  9 10  2  0
 10 11  1  0
 11 12  2  0
 13 14  2  0
 13 17  1  0
 14 15  1  0
 15 16  2  0
 16 17  1  0
M  END
>  <Gold.Gold.Protein.RotatedWaterAtoms>  (361) 


>  <Gold.Id.Protein>  (361) 


>  <Gold.PLP.Chemscore.CHOScore>  (361) 
0.0000

>  <Gold.PLP.Chemscore.Hbond>  (361) 
2.6325

>  <Gold.PLP.Chemscore.Internal.Correction>  (361) 
0.0001

>  <Gold.PLP.Chemscore.Metal>  (361) 
0.0000

>  <Gold.PLP.Fitness>  (361) 
47.6143

>  <Gold.PLP.PLP>  (361) 
-39.9696

>  <Gold.PLP.ligand.clash>  (361) 
0.0000

>  <Gold.PLP.ligand.torsion>  (361) 
0.1265

>  <Gold.PLP.part.buried>  (361) 
-8.6439

>  <Gold.PLP.part.hbond>  (361) 
-4.1929

>  <Gold.PLP.part.metal>  (361) 
0.0000

>  <Gold.PLP.part.nonpolar>  (361) 
-29.0926

>  <Gold.PLP.part.repulsive>  (361) 
0.4213

>  <Gold.Protein.RotatedAtoms>  (361) 


>  <Gold.Protein.RotatedTorsions>  (361) 


>  <Gold.Protein.RotatedWaterAtoms>  (361) 


>  <Gold.Version>  (361) 
5.3.0

>  <PLP.Chemscore.CHOScore>  (361) 


>  <PLP.Chemscore.Hbond>  (361) 


>  <PLP.Chemscore.Internal.Correction>  (361) 


>  <PLP.Chemscore.Metal>  (361) 


>  <PLP.Fitness>  (361) 


>  <PLP.PLP>  (361) 


>  <PLP.ligand.clash>  (361) 


>  <PLP.ligand.torsion>  (361) 


>  <PLP.part.buried>  (361) 


>  <PLP.part.hbond>  (361) 


>  <PLP.part.metal>  (361) 


>  <PLP.part.nonpolar>  (361) 


>  <PLP.part.repulsive>  (361) 


>  <Version>  (361) 


$$$$
3361|Compound_2069|Compounds_3D_F|sdf|600|dock8|1
     RDKit          3D

 17 19  0  0  0  0  0  0  0  0999 V2000
   -8.9508  -16.8799   11.8098 N   0  0  0  0  0  0  0  0  0  0  0  0
   -9.1771  -15.6026   12.1764 C   0  0  0  0  0  0  0  0  0  0  0  0
  -10.2964  -15.2514   12.4968 O   0  0  0  0  0  0  0  0  0  0  0  0
   -8.0675  -14.6325   12.1885 C   0  0  0  0  0  0  0  0  0  0  0  0
   -6.7307  -15.0821   12.1901 C   0  0  0  0  0  0  0  0  0  0  0  0
   -6.1612  -16.3038   12.1823 N   0  0  0  0  0  0  0  0  0  0  0  0
   -4.8636  -16.1853   12.1887 C   0  0  0  0  0  0  0  0  0  0  0  0
   -4.5163  -14.8722   12.1996 N   0  0  0  0  0  0  0  0  0  0  0  0
   -5.6877  -14.1404   12.2016 C   0  0  0  0  0  0  0  0  0  0  0  0
   -5.9771  -12.7839   12.2114 C   0  0  0  0  0  0  0  0  0  0  0  0
   -7.2902  -12.3539   12.2107 C   0  0  0  0  0  0  0  0  0  0  0  0
   -8.3307  -13.2644   12.1932 C   0  0  0  0  0  0  0  0  0  0  0  0
   -9.9957  -17.7925   11.7933 C   0  0  0  0  0  0  0  0  0  0  0  0
  -11.2216  -17.5829   12.2176 N   0  0  0  0  0  0  0  0  0  0  0  0
  -11.9391  -18.6359   12.0582 N   0  0  0  0  0  0  0  0  0  0  0  0
  -11.2373  -19.5808   11.5303 N   0  0  0  0  0  0  0  0  0  0  0  0
   -9.9450  -19.0636   11.3331 N   0  0  0  0  0  0  0  0  0  0  0  0
  1  2  1  0
  1 13  1  0
  2  3  2  0
  2  4  1  0
  4  5  2  0
  4 12  1  0
  5  6  1  0
  5  9  1  0
  6  7  2  0
  7  8  1  0
  8  9  1  0
  9 10  2  0
 10 11  1  0
 11 12  2  0
 13 14  2  0
 13 17  1  0
 14 15  1  0
 15 16  2  0
 16 17  1  0
M  END
>  <Gold.Gold.Protein.RotatedWaterAtoms>  (362) 


>  <Gold.Id.Protein>  (362) 


>  <Gold.PLP.Chemscore.CHOScore>  (362) 
0.0000

>  <Gold.PLP.Chemscore.Hbond>  (362) 
2.4357

>  <Gold.PLP.Chemscore.Internal.Correction>  (362) 
0.0001

>  <Gold.PLP.Chemscore.Metal>  (362) 
0.0000

>  <Gold.PLP.Fitness>  (362) 
47.9121

>  <Gold.PLP.PLP>  (362) 
-40.9090

>  <Gold.PLP.ligand.clash>  (362) 
0.0000

>  <Gold.PLP.ligand.torsion>  (362) 
0.1521

>  <Gold.PLP.part.buried>  (362) 
-7.3497

>  <Gold.PLP.part.hbond>  (362) 
-4.8399

>  <Gold.PLP.part.metal>  (362) 
0.0000

>  <Gold.PLP.part.nonpolar>  (362) 
-29.5040

>  <Gold.PLP.part.repulsive>  (362) 
0.9502

>  <Gold.Protein.RotatedAtoms>  (362) 


>  <Gold.Protein.RotatedTorsions>  (362) 


>  <Gold.Protein.RotatedWaterAtoms>  (362) 


>  <Gold.Version>  (362) 
5.3.0

>  <PLP.Chemscore.CHOScore>  (362) 


>  <PLP.Chemscore.Hbond>  (362) 


>  <PLP.Chemscore.Internal.Correction>  (362) 


>  <PLP.Chemscore.Metal>  (362) 


>  <PLP.Fitness>  (362) 


>  <PLP.PLP>  (362) 


>  <PLP.ligand.clash>  (362) 


>  <PLP.ligand.torsion>  (362) 


>  <PLP.part.buried>  (362) 


>  <PLP.part.hbond>  (362) 


>  <PLP.part.metal>  (362) 


>  <PLP.part.nonpolar>  (362) 


>  <PLP.part.repulsive>  (362) 


>  <Version>  (362) 


$$$$
3362|Compound_2069|Compounds_3D_F|sdf|600|dock9|1
     RDKit          3D

 17 19  0  0  0  0  0  0  0  0999 V2000
   -8.8140  -17.0224   11.7305 N   0  0  0  0  0  0  0  0  0  0  0  0
   -9.0131  -15.7305   12.0598 C   0  0  0  0  0  0  0  0  0  0  0  0
  -10.1400  -15.3228   12.2673 O   0  0  0  0  0  0  0  0  0  0  0  0
   -7.8647  -14.8129   12.1682 C   0  0  0  0  0  0  0  0  0  0  0  0
   -6.5477  -15.3165   12.1382 C   0  0  0  0  0  0  0  0  0  0  0  0
   -6.0288  -16.5552   12.0229 N   0  0  0  0  0  0  0  0  0  0  0  0
   -4.7276  -16.4922   12.0492 C   0  0  0  0  0  0  0  0  0  0  0  0
   -4.3268  -15.2013   12.1823 N   0  0  0  0  0  0  0  0  0  0  0  0
   -5.4671  -14.4242   12.2428 C   0  0  0  0  0  0  0  0  0  0  0  0
   -5.7005  -13.0633   12.3743 C   0  0  0  0  0  0  0  0  0  0  0  0
   -6.9948  -12.5803   12.4036 C   0  0  0  0  0  0  0  0  0  0  0  0
   -8.0715  -13.4410   12.2959 C   0  0  0  0  0  0  0  0  0  0  0  0
   -9.8949  -17.8856   11.6233 C   0  0  0  0  0  0  0  0  0  0  0  0
  -11.0870  -17.7123   12.1482 N   0  0  0  0  0  0  0  0  0  0  0  0
  -11.8545  -18.7000   11.8577 N   0  0  0  0  0  0  0  0  0  0  0  0
  -11.2209  -19.5636   11.1389 N   0  0  0  0  0  0  0  0  0  0  0  0
   -9.9207  -19.0615   10.9551 N   0  0  0  0  0  0  0  0  0  0  0  0
  1  2  1  0
  1 13  1  0
  2  3  2  0
  2  4  1  0
  4  5  2  0
  4 12  1  0
  5  6  1  0
  5  9  1  0
  6  7  2  0
  7  8  1  0
  8  9  1  0
  9 10  2  0
 10 11  1  0
 11 12  2  0
 13 14  2  0
 13 17  1  0
 14 15  1  0
 15 16  2  0
 16 17  1  0
M  END
>  <Gold.Gold.Protein.RotatedWaterAtoms>  (363) 


>  <Gold.Id.Protein>  (363) 


>  <Gold.PLP.Chemscore.CHOScore>  (363) 
0.0000

>  <Gold.PLP.Chemscore.Hbond>  (363) 
2.6203

>  <Gold.PLP.Chemscore.Internal.Correction>  (363) 
0.0001

>  <Gold.PLP.Chemscore.Metal>  (363) 
0.0000

>  <Gold.PLP.Fitness>  (363) 
47.8647

>  <Gold.PLP.PLP>  (363) 
-40.2736

>  <Gold.PLP.ligand.clash>  (363) 
0.0000

>  <Gold.PLP.ligand.torsion>  (363) 
0.1350

>  <Gold.PLP.part.buried>  (363) 
-8.9696

>  <Gold.PLP.part.hbond>  (363) 
-3.6123

>  <Gold.PLP.part.metal>  (363) 
0.0000

>  <Gold.PLP.part.nonpolar>  (363) 
-29.0204

>  <Gold.PLP.part.repulsive>  (363) 
0.4186

>  <Gold.Protein.RotatedAtoms>  (363) 


>  <Gold.Protein.RotatedTorsions>  (363) 


>  <Gold.Protein.RotatedWaterAtoms>  (363) 


>  <Gold.Version>  (363) 
5.3.0

>  <PLP.Chemscore.CHOScore>  (363) 


>  <PLP.Chemscore.Hbond>  (363) 


>  <PLP.Chemscore.Internal.Correction>  (363) 


>  <PLP.Chemscore.Metal>  (363) 


>  <PLP.Fitness>  (363) 


>  <PLP.PLP>  (363) 


>  <PLP.ligand.clash>  (363) 


>  <PLP.ligand.torsion>  (363) 


>  <PLP.part.buried>  (363) 


>  <PLP.part.hbond>  (363) 


>  <PLP.part.metal>  (363) 


>  <PLP.part.nonpolar>  (363) 


>  <PLP.part.repulsive>  (363) 


>  <Version>  (363) 


$$$$
3363|Compound_2072|Compounds_3D_F|sdf|601|dock1|1
     RDKit          3D

 17 19  0  0  0  0  0  0  0  0999 V2000
   -8.7139  -16.6264   11.8385 N   0  0  0  0  0  0  0  0  0  0  0  0
   -8.9785  -15.3229   12.0576 C   0  0  0  0  0  0  0  0  0  0  0  0
  -10.1271  -14.9528   12.2079 O   0  0  0  0  0  0  0  0  0  0  0  0
   -7.8753  -14.3472   12.1149 C   0  0  0  0  0  0  0  0  0  0  0  0
   -6.5363  -14.7893   12.1376 C   0  0  0  0  0  0  0  0  0  0  0  0
   -5.9593  -16.0074   12.1186 N   0  0  0  0  0  0  0  0  0  0  0  0
   -4.6630  -15.8819   12.1560 C   0  0  0  0  0  0  0  0  0  0  0  0
   -4.3239  -14.5675   12.2028 N   0  0  0  0  0  0  0  0  0  0  0  0
   -5.4994  -13.8423   12.1921 C   0  0  0  0  0  0  0  0  0  0  0  0
   -5.7971  -12.4879   12.2222 C   0  0  0  0  0  0  0  0  0  0  0  0
   -7.1124  -12.0652   12.1994 C   0  0  0  0  0  0  0  0  0  0  0  0
   -8.1467  -12.9809   12.1417 C   0  0  0  0  0  0  0  0  0  0  0  0
   -9.7538  -17.5463   11.7793 C   0  0  0  0  0  0  0  0  0  0  0  0
  -11.0127  -17.4380   12.1834 N   0  0  0  0  0  0  0  0  0  0  0  0
  -11.8372  -18.3826   12.0508 N   0  0  0  0  0  0  0  0  0  0  0  0
  -11.5028  -19.5357   11.5050 C   0  0  0  0  0  0  0  0  0  0  0  0
   -9.7814  -19.2145   11.1280 S   0  0  0  0  0  0  0  0  0  0  0  0
  1  2  1  0
  1 13  1  0
  2  3  2  0
  2  4  1  0
  4  5  2  0
  4 12  1  0
  5  6  1  0
  5  9  1  0
  6  7  2  0
  7  8  1  0
  8  9  1  0
  9 10  2  0
 10 11  1  0
 11 12  2  0
 13 14  2  0
 13 17  1  0
 14 15  1  0
 15 16  2  0
 16 17  1  0
M  END
>  <Gold.Gold.Protein.RotatedWaterAtoms>  (364) 


>  <Gold.Id.Protein>  (364) 


>  <Gold.PLP.Chemscore.CHOScore>  (364) 
0.0000

>  <Gold.PLP.Chemscore.Hbond>  (364) 
2.0423

>  <Gold.PLP.Chemscore.Internal.Correction>  (364) 
0.0001

>  <Gold.PLP.Chemscore.Metal>  (364) 
0.0000

>  <Gold.PLP.Fitness>  (364) 
50.3097

>  <Gold.PLP.PLP>  (364) 
-44.3845

>  <Gold.PLP.ligand.clash>  (364) 
0.0000

>  <Gold.PLP.ligand.torsion>  (364) 
0.1009

>  <Gold.PLP.part.buried>  (364) 
-7.8054

>  <Gold.PLP.part.hbond>  (364) 
-3.8218

>  <Gold.PLP.part.metal>  (364) 
0.0000

>  <Gold.PLP.part.nonpolar>  (364) 
-33.3355

>  <Gold.PLP.part.repulsive>  (364) 
0.5021

>  <Gold.Protein.RotatedAtoms>  (364) 


>  <Gold.Protein.RotatedTorsions>  (364) 


>  <Gold.Protein.RotatedWaterAtoms>  (364) 


>  <Gold.Version>  (364) 
5.3.0

>  <PLP.Chemscore.CHOScore>  (364) 


>  <PLP.Chemscore.Hbond>  (364) 


>  <PLP.Chemscore.Internal.Correction>  (364) 


>  <PLP.Chemscore.Metal>  (364) 


>  <PLP.Fitness>  (364) 


>  <PLP.PLP>  (364) 


>  <PLP.ligand.clash>  (364) 


>  <PLP.ligand.torsion>  (364) 


>  <PLP.part.buried>  (364) 


>  <PLP.part.hbond>  (364) 


>  <PLP.part.metal>  (364) 


>  <PLP.part.nonpolar>  (364) 


>  <PLP.part.repulsive>  (364) 


>  <Version>  (364) 


$$$$
3364|Compound_2072|Compounds_3D_F|sdf|601|dock2|1
     RDKit          3D

 17 19  0  0  0  0  0  0  0  0999 V2000
   -8.7783  -17.0481   11.6964 N   0  0  0  0  0  0  0  0  0  0  0  0
   -8.9554  -15.7472   12.0020 C   0  0  0  0  0  0  0  0  0  0  0  0
  -10.0753  -15.3162   12.1994 O   0  0  0  0  0  0  0  0  0  0  0  0
   -7.7913  -14.8481   12.0969 C   0  0  0  0  0  0  0  0  0  0  0  0
   -6.4843  -15.3777   12.1156 C   0  0  0  0  0  0  0  0  0  0  0  0
   -5.9881  -16.6299   12.0635 N   0  0  0  0  0  0  0  0  0  0  0  0
   -4.6867  -16.5909   12.1138 C   0  0  0  0  0  0  0  0  0  0  0  0
   -4.2629  -15.3036   12.2031 N   0  0  0  0  0  0  0  0  0  0  0  0
   -5.3883  -14.5028   12.2064 C   0  0  0  0  0  0  0  0  0  0  0  0
   -5.5970  -13.1334   12.2757 C   0  0  0  0  0  0  0  0  0  0  0  0
   -6.8816  -12.6247   12.2566 C   0  0  0  0  0  0  0  0  0  0  0  0
   -7.9731  -13.4684   12.1636 C   0  0  0  0  0  0  0  0  0  0  0  0
   -9.8757  -17.8954   11.6017 C   0  0  0  0  0  0  0  0  0  0  0  0
  -11.1152  -17.7392   12.0480 N   0  0  0  0  0  0  0  0  0  0  0  0
  -12.0010  -18.6190   11.8723 N   0  0  0  0  0  0  0  0  0  0  0  0
  -11.7537  -19.7479   11.2370 C   0  0  0  0  0  0  0  0  0  0  0  0
  -10.0249  -19.5071   10.8350 S   0  0  0  0  0  0  0  0  0  0  0  0
  1  2  1  0
  1 13  1  0
  2  3  2  0
  2  4  1  0
  4  5  2  0
  4 12  1  0
  5  6  1  0
  5  9  1  0
  6  7  2  0
  7  8  1  0
  8  9  1  0
  9 10  2  0
 10 11  1  0
 11 12  2  0
 13 14  2  0
 13 17  1  0
 14 15  1  0
 15 16  2  0
 16 17  1  0
M  END
>  <Gold.Gold.Protein.RotatedWaterAtoms>  (365) 


>  <Gold.Id.Protein>  (365) 


>  <Gold.PLP.Chemscore.CHOScore>  (365) 
0.0000

>  <Gold.PLP.Chemscore.Hbond>  (365) 
2.3575

>  <Gold.PLP.Chemscore.Internal.Correction>  (365) 
0.0001

>  <Gold.PLP.Chemscore.Metal>  (365) 
0.0000

>  <Gold.PLP.Fitness>  (365) 
49.2841

>  <Gold.PLP.PLP>  (365) 
-42.4693

>  <Gold.PLP.ligand.clash>  (365) 
0.0000

>  <Gold.PLP.ligand.torsion>  (365) 
0.1289

>  <Gold.PLP.part.buried>  (365) 
-8.9211

>  <Gold.PLP.part.hbond>  (365) 
-3.0979

>  <Gold.PLP.part.metal>  (365) 
0.0000

>  <Gold.PLP.part.nonpolar>  (365) 
-31.1458

>  <Gold.PLP.part.repulsive>  (365) 
0.3934

>  <Gold.Protein.RotatedAtoms>  (365) 


>  <Gold.Protein.RotatedTorsions>  (365) 


>  <Gold.Protein.RotatedWaterAtoms>  (365) 


>  <Gold.Version>  (365) 
5.3.0

>  <PLP.Chemscore.CHOScore>  (365) 


>  <PLP.Chemscore.Hbond>  (365) 


>  <PLP.Chemscore.Internal.Correction>  (365) 


>  <PLP.Chemscore.Metal>  (365) 


>  <PLP.Fitness>  (365) 


>  <PLP.PLP>  (365) 


>  <PLP.ligand.clash>  (365) 


>  <PLP.ligand.torsion>  (365) 


>  <PLP.part.buried>  (365) 


>  <PLP.part.hbond>  (365) 


>  <PLP.part.metal>  (365) 


>  <PLP.part.nonpolar>  (365) 


>  <PLP.part.repulsive>  (365) 


>  <Version>  (365) 


$$$$
3365|Compound_2072|Compounds_3D_F|sdf|601|dock3|1
     RDKit          3D

 17 19  0  0  0  0  0  0  0  0999 V2000
   -8.9447  -16.3497   11.8946 N   0  0  0  0  0  0  0  0  0  0  0  0
   -9.0471  -15.0446   12.2158 C   0  0  0  0  0  0  0  0  0  0  0  0
  -10.1292  -14.5743   12.5105 O   0  0  0  0  0  0  0  0  0  0  0  0
   -7.8473  -14.1885   12.2097 C   0  0  0  0  0  0  0  0  0  0  0  0
   -6.5614  -14.7676   12.2077 C   0  0  0  0  0  0  0  0  0  0  0  0
   -6.1149  -16.0395   12.2111 N   0  0  0  0  0  0  0  0  0  0  0  0
   -4.8120  -16.0493   12.2066 C   0  0  0  0  0  0  0  0  0  0  0  0
   -4.3370  -14.7768   12.2013 N   0  0  0  0  0  0  0  0  0  0  0  0
   -5.4307  -13.9332   12.2016 C   0  0  0  0  0  0  0  0  0  0  0  0
   -5.5850  -12.5548   12.1968 C   0  0  0  0  0  0  0  0  0  0  0  0
   -6.8494  -11.9975   12.1988 C   0  0  0  0  0  0  0  0  0  0  0  0
   -7.9745  -12.8011   12.2005 C   0  0  0  0  0  0  0  0  0  0  0  0
  -10.0762  -17.1565   11.8952 C   0  0  0  0  0  0  0  0  0  0  0  0
  -11.2431  -16.9890   12.5036 N   0  0  0  0  0  0  0  0  0  0  0  0
  -12.1762  -17.8299   12.3953 N   0  0  0  0  0  0  0  0  0  0  0  0
  -12.0531  -18.9270   11.6739 C   0  0  0  0  0  0  0  0  0  0  0  0
  -10.3807  -18.7157   11.0683 S   0  0  0  0  0  0  0  0  0  0  0  0
  1  2  1  0
  1 13  1  0
  2  3  2  0
  2  4  1  0
  4  5  2  0
  4 12  1  0
  5  6  1  0
  5  9  1  0
  6  7  2  0
  7  8  1  0
  8  9  1  0
  9 10  2  0
 10 11  1  0
 11 12  2  0
 13 14  2  0
 13 17  1  0
 14 15  1  0
 15 16  2  0
 16 17  1  0
M  END
>  <Gold.Gold.Protein.RotatedWaterAtoms>  (366) 


>  <Gold.Id.Protein>  (366) 


>  <Gold.PLP.Chemscore.CHOScore>  (366) 
0.0000

>  <Gold.PLP.Chemscore.Hbond>  (366) 
2.1700

>  <Gold.PLP.Chemscore.Internal.Correction>  (366) 
0.0001

>  <Gold.PLP.Chemscore.Metal>  (366) 
0.0000

>  <Gold.PLP.Fitness>  (366) 
50.8040

>  <Gold.PLP.PLP>  (366) 
-44.7216

>  <Gold.PLP.ligand.clash>  (366) 
0.0000

>  <Gold.PLP.ligand.torsion>  (366) 
0.2139

>  <Gold.PLP.part.buried>  (366) 
-2.9873

>  <Gold.PLP.part.hbond>  (366) 
-7.8165

>  <Gold.PLP.part.metal>  (366) 
0.0000

>  <Gold.PLP.part.nonpolar>  (366) 
-35.1216

>  <Gold.PLP.part.repulsive>  (366) 
0.9959

>  <Gold.Protein.RotatedAtoms>  (366) 


>  <Gold.Protein.RotatedTorsions>  (366) 


>  <Gold.Protein.RotatedWaterAtoms>  (366) 


>  <Gold.Version>  (366) 
5.3.0

>  <PLP.Chemscore.CHOScore>  (366) 


>  <PLP.Chemscore.Hbond>  (366) 


>  <PLP.Chemscore.Internal.Correction>  (366) 


>  <PLP.Chemscore.Metal>  (366) 


>  <PLP.Fitness>  (366) 


>  <PLP.PLP>  (366) 


>  <PLP.ligand.clash>  (366) 


>  <PLP.ligand.torsion>  (366) 


>  <PLP.part.buried>  (366) 


>  <PLP.part.hbond>  (366) 


>  <PLP.part.metal>  (366) 


>  <PLP.part.nonpolar>  (366) 


>  <PLP.part.repulsive>  (366) 


>  <Version>  (366) 


$$$$
3366|Compound_2077|Compounds_3D_F|sdf|602|dock1|1
     RDKit          3D

 23 25  0  0  0  0  0  0  0  0999 V2000
   -7.1481  -20.7451    9.3690 O   0  0  0  0  0  0  0  0  0  0  0  0
   -7.5465  -19.6427   10.0326 C   0  0  0  0  0  0  0  0  0  0  0  0
   -6.7656  -18.7329   10.2236 O   0  0  0  0  0  0  0  0  0  0  0  0
   -8.9366  -19.5408   10.5288 C   0  0  0  0  0  0  0  0  0  0  0  0
   -9.8237  -20.5029   10.2637 N   0  0  0  0  0  0  0  0  0  0  0  0
  -11.0640  -20.4187   10.7031 C   0  0  0  0  0  0  0  0  0  0  0  0
  -11.9332  -21.4179   10.4112 O   0  0  0  0  0  0  0  0  0  0  0  0
  -11.4883  -19.3894   11.4203 N   0  0  0  0  0  0  0  0  0  0  0  0
  -10.6744  -18.3909   11.7293 C   0  0  0  0  0  0  0  0  0  0  0  0
  -11.1191  -17.3424   12.4630 O   0  0  0  0  0  0  0  0  0  0  0  0
   -9.3414  -18.4389   11.2877 C   0  0  0  0  0  0  0  0  0  0  0  0
   -8.4497  -17.4102   11.5905 N   0  0  0  0  0  0  0  0  0  0  0  0
   -8.6930  -16.1583   11.1549 C   0  0  0  0  0  0  0  0  0  0  0  0
   -9.6611  -15.9358   10.4544 O   0  0  0  0  0  0  0  0  0  0  0  0
   -7.7839  -15.0595   11.5282 C   0  0  0  0  0  0  0  0  0  0  0  0
   -6.4112  -15.3113   11.7305 C   0  0  0  0  0  0  0  0  0  0  0  0
   -5.6494  -16.4206   11.6599 N   0  0  0  0  0  0  0  0  0  0  0  0
   -4.4120  -16.1247   11.9416 C   0  0  0  0  0  0  0  0  0  0  0  0
   -4.3004  -14.7989   12.2113 N   0  0  0  0  0  0  0  0  0  0  0  0
   -5.5615  -14.2498   12.0848 C   0  0  0  0  0  0  0  0  0  0  0  0
   -6.0746  -12.9690   12.2324 C   0  0  0  0  0  0  0  0  0  0  0  0
   -7.4210  -12.7339   12.0318 C   0  0  0  0  0  0  0  0  0  0  0  0
   -8.2722  -13.7643   11.6774 C   0  0  0  0  0  0  0  0  0  0  0  0
  1  2  1  0
  2  3  2  0
  2  4  1  0
  4  5  2  0
  4 11  1  0
  5  6  1  0
  6  7  1  0
  6  8  2  0
  8  9  1  0
  9 10  1  0
  9 11  2  0
 11 12  1  0
 12 13  1  0
 13 14  2  0
 13 15  1  0
 15 16  2  0
 15 23  1  0
 16 17  1  0
 16 20  1  0
 17 18  2  0
 18 19  1  0
 19 20  1  0
 20 21  2  0
 21 22  1  0
 22 23  2  0
M  END
>  <Gold.Gold.Protein.RotatedWaterAtoms>  (367) 


>  <Gold.Id.Protein>  (367) 


>  <Gold.PLP.Chemscore.CHOScore>  (367) 
0.0000

>  <Gold.PLP.Chemscore.Hbond>  (367) 
3.0000

>  <Gold.PLP.Chemscore.Internal.Correction>  (367) 
1.1840

>  <Gold.PLP.Chemscore.Metal>  (367) 
0.0000

>  <Gold.PLP.Fitness>  (367) 
53.5494

>  <Gold.PLP.PLP>  (367) 
-45.3428

>  <Gold.PLP.ligand.clash>  (367) 
0.0028

>  <Gold.PLP.ligand.torsion>  (367) 
0.9873

>  <Gold.PLP.part.buried>  (367) 
-9.2236

>  <Gold.PLP.part.hbond>  (367) 
-4.2354

>  <Gold.PLP.part.metal>  (367) 
0.0000

>  <Gold.PLP.part.nonpolar>  (367) 
-32.2428

>  <Gold.PLP.part.repulsive>  (367) 
0.3664

>  <Gold.Protein.RotatedAtoms>  (367) 


>  <Gold.Protein.RotatedTorsions>  (367) 


>  <Gold.Protein.RotatedWaterAtoms>  (367) 


>  <Gold.Version>  (367) 
5.3.0

>  <PLP.Chemscore.CHOScore>  (367) 


>  <PLP.Chemscore.Hbond>  (367) 


>  <PLP.Chemscore.Internal.Correction>  (367) 


>  <PLP.Chemscore.Metal>  (367) 


>  <PLP.Fitness>  (367) 


>  <PLP.PLP>  (367) 


>  <PLP.ligand.clash>  (367) 


>  <PLP.ligand.torsion>  (367) 


>  <PLP.part.buried>  (367) 


>  <PLP.part.hbond>  (367) 


>  <PLP.part.metal>  (367) 


>  <PLP.part.nonpolar>  (367) 


>  <PLP.part.repulsive>  (367) 


>  <Version>  (367) 


$$$$
3367|Compound_2077|Compounds_3D_F|sdf|602|dock2|1
     RDKit          3D

 23 25  0  0  0  0  0  0  0  0999 V2000
   -8.1758  -19.1595    7.4261 O   0  0  0  0  0  0  0  0  0  0  0  0
   -8.2560  -18.7214    8.6974 C   0  0  0  0  0  0  0  0  0  0  0  0
   -7.2779  -18.2498    9.2404 O   0  0  0  0  0  0  0  0  0  0  0  0
   -9.5368  -18.8151    9.4319 C   0  0  0  0  0  0  0  0  0  0  0  0
  -10.5179  -19.6040    8.9868 N   0  0  0  0  0  0  0  0  0  0  0  0
  -11.6617  -19.6925    9.6366 C   0  0  0  0  0  0  0  0  0  0  0  0
  -12.6320  -20.5055    9.1500 O   0  0  0  0  0  0  0  0  0  0  0  0
  -11.8936  -19.0126   10.7492 N   0  0  0  0  0  0  0  0  0  0  0  0
  -10.9750  -18.2068   11.2607 C   0  0  0  0  0  0  0  0  0  0  0  0
  -11.2230  -17.5155   12.3992 O   0  0  0  0  0  0  0  0  0  0  0  0
   -9.7378  -18.0840   10.6062 C   0  0  0  0  0  0  0  0  0  0  0  0
   -8.7416  -17.2478   11.1097 N   0  0  0  0  0  0  0  0  0  0  0  0
   -8.7997  -15.9203   10.8848 C   0  0  0  0  0  0  0  0  0  0  0  0
   -9.6908  -15.4582   10.1993 O   0  0  0  0  0  0  0  0  0  0  0  0
   -7.7814  -15.0294   11.4702 C   0  0  0  0  0  0  0  0  0  0  0  0
   -6.4498  -15.4708   11.6135 C   0  0  0  0  0  0  0  0  0  0  0  0
   -5.8152  -16.6222   11.3176 N   0  0  0  0  0  0  0  0  0  0  0  0
   -4.5584  -16.5313   11.6498 C   0  0  0  0  0  0  0  0  0  0  0  0
   -4.3051  -15.3084   12.1820 N   0  0  0  0  0  0  0  0  0  0  0  0
   -5.4943  -14.6057   12.1729 C   0  0  0  0  0  0  0  0  0  0  0  0
   -5.8641  -13.3312   12.5783 C   0  0  0  0  0  0  0  0  0  0  0  0
   -7.1716  -12.9095   12.4332 C   0  0  0  0  0  0  0  0  0  0  0  0
   -8.1251  -13.7441   11.8800 C   0  0  0  0  0  0  0  0  0  0  0  0
  1  2  1  0
  2  3  2  0
  2  4  1  0
  4  5  2  0
  4 11  1  0
  5  6  1  0
  6  7  1  0
  6  8  2  0
  8  9  1  0
  9 10  1  0
  9 11  2  0
 11 12  1  0
 12 13  1  0
 13 14  2  0
 13 15  1  0
 15 16  2  0
 15 23  1  0
 16 17  1  0
 16 20  1  0
 17 18  2  0
 18 19  1  0
 19 20  1  0
 20 21  2  0
 21 22  1  0
 22 23  2  0
M  END
>  <Gold.Gold.Protein.RotatedWaterAtoms>  (368) 


>  <Gold.Id.Protein>  (368) 


>  <Gold.PLP.Chemscore.CHOScore>  (368) 
0.0000

>  <Gold.PLP.Chemscore.Hbond>  (368) 
3.8960

>  <Gold.PLP.Chemscore.Internal.Correction>  (368) 
1.1653

>  <Gold.PLP.Chemscore.Metal>  (368) 
0.0000

>  <Gold.PLP.Fitness>  (368) 
54.6220

>  <Gold.PLP.PLP>  (368) 
-44.4067

>  <Gold.PLP.ligand.clash>  (368) 
0.0000

>  <Gold.PLP.ligand.torsion>  (368) 
1.3190

>  <Gold.PLP.part.buried>  (368) 
-7.3268

>  <Gold.PLP.part.hbond>  (368) 
-5.9487

>  <Gold.PLP.part.metal>  (368) 
0.0000

>  <Gold.PLP.part.nonpolar>  (368) 
-30.7152

>  <Gold.PLP.part.repulsive>  (368) 
0.2998

>  <Gold.Protein.RotatedAtoms>  (368) 


>  <Gold.Protein.RotatedTorsions>  (368) 


>  <Gold.Protein.RotatedWaterAtoms>  (368) 


>  <Gold.Version>  (368) 
5.3.0

>  <PLP.Chemscore.CHOScore>  (368) 


>  <PLP.Chemscore.Hbond>  (368) 


>  <PLP.Chemscore.Internal.Correction>  (368) 


>  <PLP.Chemscore.Metal>  (368) 


>  <PLP.Fitness>  (368) 


>  <PLP.PLP>  (368) 


>  <PLP.ligand.clash>  (368) 


>  <PLP.ligand.torsion>  (368) 


>  <PLP.part.buried>  (368) 


>  <PLP.part.hbond>  (368) 


>  <PLP.part.metal>  (368) 


>  <PLP.part.nonpolar>  (368) 


>  <PLP.part.repulsive>  (368) 


>  <Version>  (368) 


$$$$
3368|Compound_2077|Compounds_3D_F|sdf|602|dock3|1
     RDKit          3D

 23 25  0  0  0  0  0  0  0  0999 V2000
   -7.2170  -20.7745    9.6109 O   0  0  0  0  0  0  0  0  0  0  0  0
   -7.6403  -19.6261   10.1735 C   0  0  0  0  0  0  0  0  0  0  0  0
   -6.8721  -18.6956   10.3071 O   0  0  0  0  0  0  0  0  0  0  0  0
   -9.0423  -19.4991   10.6286 C   0  0  0  0  0  0  0  0  0  0  0  0
   -9.9377  -20.4468   10.3403 N   0  0  0  0  0  0  0  0  0  0  0  0
  -11.1886  -20.3401   10.7431 C   0  0  0  0  0  0  0  0  0  0  0  0
  -12.0659  -21.3254   10.4286 O   0  0  0  0  0  0  0  0  0  0  0  0
  -11.6160  -19.3014   11.4448 N   0  0  0  0  0  0  0  0  0  0  0  0
  -10.7945  -18.3160   11.7747 C   0  0  0  0  0  0  0  0  0  0  0  0
  -11.2424  -17.2577   12.4923 O   0  0  0  0  0  0  0  0  0  0  0  0
   -9.4502  -18.3880   11.3724 C   0  0  0  0  0  0  0  0  0  0  0  0
   -8.5502  -17.3736   11.6982 N   0  0  0  0  0  0  0  0  0  0  0  0
   -8.7509  -16.1226   11.2394 C   0  0  0  0  0  0  0  0  0  0  0  0
   -9.6863  -15.8893   10.4989 O   0  0  0  0  0  0  0  0  0  0  0  0
   -7.8349  -15.0375   11.6356 C   0  0  0  0  0  0  0  0  0  0  0  0
   -6.4554  -15.2908   11.7814 C   0  0  0  0  0  0  0  0  0  0  0  0
   -5.6915  -16.3910   11.6333 N   0  0  0  0  0  0  0  0  0  0  0  0
   -4.4469  -16.1017   11.8889 C   0  0  0  0  0  0  0  0  0  0  0  0
   -4.3323  -14.7897   12.2182 N   0  0  0  0  0  0  0  0  0  0  0  0
   -5.5992  -14.2425   12.1588 C   0  0  0  0  0  0  0  0  0  0  0  0
   -6.1126  -12.9732   12.3842 C   0  0  0  0  0  0  0  0  0  0  0  0
   -7.4659  -12.7367   12.2384 C   0  0  0  0  0  0  0  0  0  0  0  0
   -8.3237  -13.7539   11.8624 C   0  0  0  0  0  0  0  0  0  0  0  0
  1  2  1  0
  2  3  2  0
  2  4  1  0
  4  5  2  0
  4 11  1  0
  5  6  1  0
  6  7  1  0
  6  8  2  0
  8  9  1  0
  9 10  1  0
  9 11  2  0
 11 12  1  0
 12 13  1  0
 13 14  2  0
 13 15  1  0
 15 16  2  0
 15 23  1  0
 16 17  1  0
 16 20  1  0
 17 18  2  0
 18 19  1  0
 19 20  1  0
 20 21  2  0
 21 22  1  0
 22 23  2  0
M  END
>  <Gold.Gold.Protein.RotatedWaterAtoms>  (369) 


>  <Gold.Id.Protein>  (369) 


>  <Gold.PLP.Chemscore.CHOScore>  (369) 
0.0000

>  <Gold.PLP.Chemscore.Hbond>  (369) 
3.0000

>  <Gold.PLP.Chemscore.Internal.Correction>  (369) 
1.1653

>  <Gold.PLP.Chemscore.Metal>  (369) 
0.0000

>  <Gold.PLP.Fitness>  (369) 
53.6286

>  <Gold.PLP.PLP>  (369) 
-45.7742

>  <Gold.PLP.ligand.clash>  (369) 
0.0000

>  <Gold.PLP.ligand.torsion>  (369) 
1.1555

>  <Gold.PLP.part.buried>  (369) 
-8.5466

>  <Gold.PLP.part.hbond>  (369) 
-4.0833

>  <Gold.PLP.part.metal>  (369) 
0.0000

>  <Gold.PLP.part.nonpolar>  (369) 
-32.9838

>  <Gold.PLP.part.repulsive>  (369) 
0.3760

>  <Gold.Protein.RotatedAtoms>  (369) 


>  <Gold.Protein.RotatedTorsions>  (369) 


>  <Gold.Protein.RotatedWaterAtoms>  (369) 


>  <Gold.Version>  (369) 
5.3.0

>  <PLP.Chemscore.CHOScore>  (369) 


>  <PLP.Chemscore.Hbond>  (369) 


>  <PLP.Chemscore.Internal.Correction>  (369) 


>  <PLP.Chemscore.Metal>  (369) 


>  <PLP.Fitness>  (369) 


>  <PLP.PLP>  (369) 


>  <PLP.ligand.clash>  (369) 


>  <PLP.ligand.torsion>  (369) 


>  <PLP.part.buried>  (369) 


>  <PLP.part.hbond>  (369) 


>  <PLP.part.metal>  (369) 


>  <PLP.part.nonpolar>  (369) 


>  <PLP.part.repulsive>  (369) 


>  <Version>  (369) 


$$$$
3369|Compound_2080|Compounds_3D_F|sdf|603|dock1|1
     RDKit          3D

 37 42  0  0  0  0  0  0  0  0999 V2000
   -8.1539  -17.6553   10.5851 N   0  0  0  0  0  0  0  0  0  0  0  0
   -8.6787  -16.5747   11.1969 C   0  0  0  0  0  0  0  0  0  0  0  0
   -9.8837  -16.4789   11.3316 O   0  0  0  0  0  0  0  0  0  0  0  0
   -7.7937  -15.5112   11.7028 C   0  0  0  0  0  0  0  0  0  0  0  0
   -6.3997  -15.7158   11.7677 C   0  0  0  0  0  0  0  0  0  0  0  0
   -5.5978  -16.7511   11.4490 N   0  0  0  0  0  0  0  0  0  0  0  0
   -4.3566  -16.4402   11.6992 C   0  0  0  0  0  0  0  0  0  0  0  0
   -4.2844  -15.1784   12.1976 N   0  0  0  0  0  0  0  0  0  0  0  0
   -5.5752  -14.6885   12.2542 C   0  0  0  0  0  0  0  0  0  0  0  0
   -6.1319  -13.4857   12.6634 C   0  0  0  0  0  0  0  0  0  0  0  0
   -7.4980  -13.2945   12.5944 C   0  0  0  0  0  0  0  0  0  0  0  0
   -8.3270  -14.2920   12.1159 C   0  0  0  0  0  0  0  0  0  0  0  0
   -8.9871  -18.6523   10.1051 C   0  0  0  0  0  0  0  0  0  0  0  0
  -10.2942  -18.5860   10.0052 N   0  0  0  0  0  0  0  0  0  0  0  0
  -10.7689  -19.7330    9.4993 C   0  0  0  0  0  0  0  0  0  0  0  0
   -9.7645  -20.5488    9.2679 N   0  0  0  0  0  0  0  0  0  0  0  0
   -8.5933  -19.8732    9.6467 N   0  0  0  0  0  0  0  0  0  0  0  0
   -7.2921  -20.3566    9.5755 C   0  0  0  0  0  0  0  0  0  0  0  0
   -6.2931  -19.5672    9.2083 N   0  0  0  0  0  0  0  0  0  0  0  0
   -5.0494  -20.0143    9.1361 C   0  0  0  0  0  0  0  0  0  0  0  0
   -4.7186  -21.2532    9.4170 N   0  0  0  0  0  0  0  0  0  0  0  0
   -5.6532  -22.1348    9.7989 C   0  0  0  0  0  0  0  0  0  0  0  0
   -7.0001  -21.7007    9.8973 C   0  0  0  0  0  0  0  0  0  0  0  0
   -7.9947  -22.6032   10.2941 C   0  0  0  0  0  0  0  0  0  0  0  0
   -7.6568  -23.8950   10.5823 C   0  0  0  0  0  0  0  0  0  0  0  0
   -8.6214  -24.7722   10.9673 O   0  0  0  0  0  0  0  0  0  0  0  0
   -9.7440  -24.2353   11.6693 C   0  0  0  0  0  0  0  0  0  0  0  0
   -6.3259  -24.3265   10.4849 C   0  0  0  0  0  0  0  0  0  0  0  0
   -6.0166  -25.6161   10.7774 O   0  0  0  0  0  0  0  0  0  0  0  0
   -4.7142  -25.8662   11.3097 C   0  0  0  0  0  0  0  0  0  0  0  0
   -5.3350  -23.4644   10.1061 C   0  0  0  0  0  0  0  0  0  0  0  0
  -12.1989  -20.0336    9.2413 C   0  0  0  0  0  0  0  0  0  0  0  0
  -12.5355  -21.1736    8.6515 N   0  0  0  0  0  0  0  0  0  0  0  0
  -13.7932  -21.4781    8.4045 C   0  0  0  0  0  0  0  0  0  0  0  0
  -14.8143  -20.6146    8.7548 C   0  0  0  0  0  0  0  0  0  0  0  0
  -14.5067  -19.4112    9.3733 C   0  0  0  0  0  0  0  0  0  0  0  0
  -13.1771  -19.1191    9.6254 C   0  0  0  0  0  0  0  0  0  0  0  0
  1  2  1  0
  1 13  1  0
  2  3  2  0
  2  4  1  0
  4  5  2  0
  4 12  1  0
  5  6  1  0
  5  9  1  0
  6  7  2  0
  7  8  1  0
  8  9  1  0
  9 10  2  0
 10 11  1  0
 11 12  2  0
 13 14  2  0
 13 17  1  0
 14 15  1  0
 15 16  2  0
 15 32  1  0
 16 17  1  0
 17 18  1  0
 18 19  2  0
 18 23  1  0
 19 20  1  0
 20 21  2  0
 21 22  1  0
 22 23  2  0
 22 31  1  0
 23 24  1  0
 24 25  2  0
 25 26  1  0
 25 28  1  0
 26 27  1  0
 28 29  1  0
 28 31  2  0
 29 30  1  0
 32 33  2  0
 32 37  1  0
 33 34  1  0
 34 35  2  0
 35 36  1  0
 36 37  2  0
M  END
>  <Gold.Gold.Protein.RotatedWaterAtoms>  (370) 


>  <Gold.Id.Protein>  (370) 


>  <Gold.PLP.Chemscore.CHOScore>  (370) 
0.0000

>  <Gold.PLP.Chemscore.Hbond>  (370) 
1.5920

>  <Gold.PLP.Chemscore.Internal.Correction>  (370) 
2.0129

>  <Gold.PLP.Chemscore.Metal>  (370) 
0.0000

>  <Gold.PLP.Fitness>  (370) 
65.3184

>  <Gold.PLP.PLP>  (370) 
-61.4290

>  <Gold.PLP.ligand.clash>  (370) 
0.0000

>  <Gold.PLP.ligand.torsion>  (370) 
1.4497

>  <Gold.PLP.part.buried>  (370) 
-10.5219

>  <Gold.PLP.part.hbond>  (370) 
-2.4001

>  <Gold.PLP.part.metal>  (370) 
0.0000

>  <Gold.PLP.part.nonpolar>  (370) 
-49.1265

>  <Gold.PLP.part.repulsive>  (370) 
0.2659

>  <Gold.Protein.RotatedAtoms>  (370) 


>  <Gold.Protein.RotatedTorsions>  (370) 


>  <Gold.Protein.RotatedWaterAtoms>  (370) 


>  <Gold.Version>  (370) 
5.3.0

>  <PLP.Chemscore.CHOScore>  (370) 


>  <PLP.Chemscore.Hbond>  (370) 


>  <PLP.Chemscore.Internal.Correction>  (370) 


>  <PLP.Chemscore.Metal>  (370) 


>  <PLP.Fitness>  (370) 


>  <PLP.PLP>  (370) 


>  <PLP.ligand.clash>  (370) 


>  <PLP.ligand.torsion>  (370) 


>  <PLP.part.buried>  (370) 


>  <PLP.part.hbond>  (370) 


>  <PLP.part.metal>  (370) 


>  <PLP.part.nonpolar>  (370) 


>  <PLP.part.repulsive>  (370) 


>  <Version>  (370) 


$$$$
3370|Compound_2080|Compounds_3D_F|sdf|603|dock2|1
     RDKit          3D

 37 42  0  0  0  0  0  0  0  0999 V2000
   -8.3567  -17.1700   10.5477 N   0  0  0  0  0  0  0  0  0  0  0  0
   -8.7623  -16.2268   11.4213 C   0  0  0  0  0  0  0  0  0  0  0  0
   -9.8754  -16.2883   11.9077 O   0  0  0  0  0  0  0  0  0  0  0  0
   -7.8581  -15.1227   11.7873 C   0  0  0  0  0  0  0  0  0  0  0  0
   -6.4671  -15.3403   11.8731 C   0  0  0  0  0  0  0  0  0  0  0  0
   -5.6833  -16.4203   11.6843 N   0  0  0  0  0  0  0  0  0  0  0  0
   -4.4361  -16.1008   11.8899 C   0  0  0  0  0  0  0  0  0  0  0  0
   -4.3415  -14.7878   12.2259 N   0  0  0  0  0  0  0  0  0  0  0  0
   -5.6241  -14.2738   12.2246 C   0  0  0  0  0  0  0  0  0  0  0  0
   -6.1598  -13.0203   12.4815 C   0  0  0  0  0  0  0  0  0  0  0  0
   -7.5230  -12.8170   12.3932 C   0  0  0  0  0  0  0  0  0  0  0  0
   -8.3700  -13.8530   12.0459 C   0  0  0  0  0  0  0  0  0  0  0  0
   -9.2094  -18.2047   10.2002 C   0  0  0  0  0  0  0  0  0  0  0  0
  -10.5211  -18.1699   10.2336 N   0  0  0  0  0  0  0  0  0  0  0  0
  -11.0163  -19.3483    9.8297 C   0  0  0  0  0  0  0  0  0  0  0  0
  -10.0207  -20.1530    9.5308 N   0  0  0  0  0  0  0  0  0  0  0  0
   -8.8341  -19.4369    9.7567 N   0  0  0  0  0  0  0  0  0  0  0  0
   -7.5355  -19.8962    9.5718 C   0  0  0  0  0  0  0  0  0  0  0  0
   -6.5723  -19.0729    9.1838 N   0  0  0  0  0  0  0  0  0  0  0  0
   -5.3314  -19.4968    9.0038 C   0  0  0  0  0  0  0  0  0  0  0  0
   -4.9686  -20.7443    9.1921 N   0  0  0  0  0  0  0  0  0  0  0  0
   -5.8655  -21.6594    9.5853 C   0  0  0  0  0  0  0  0  0  0  0  0
   -7.2074  -21.2515    9.7975 C   0  0  0  0  0  0  0  0  0  0  0  0
   -8.1629  -22.1893   10.2085 C   0  0  0  0  0  0  0  0  0  0  0  0
   -7.7920  -23.4898   10.4005 C   0  0  0  0  0  0  0  0  0  0  0  0
   -8.7186  -24.4012   10.7991 O   0  0  0  0  0  0  0  0  0  0  0  0
   -9.7973  -23.9207   11.6034 C   0  0  0  0  0  0  0  0  0  0  0  0
   -6.4659  -23.8954   10.1905 C   0  0  0  0  0  0  0  0  0  0  0  0
   -6.1232  -25.1945   10.3890 O   0  0  0  0  0  0  0  0  0  0  0  0
   -4.7852  -25.4542   10.8183 C   0  0  0  0  0  0  0  0  0  0  0  0
   -5.5124  -22.9990    9.7955 C   0  0  0  0  0  0  0  0  0  0  0  0
  -12.4572  -19.6897    9.7346 C   0  0  0  0  0  0  0  0  0  0  0  0
  -13.3245  -19.1182   10.5605 N   0  0  0  0  0  0  0  0  0  0  0  0
  -14.6116  -19.3942   10.5089 C   0  0  0  0  0  0  0  0  0  0  0  0
  -15.1078  -20.2946    9.5849 C   0  0  0  0  0  0  0  0  0  0  0  0
  -14.2355  -20.9155    8.7024 C   0  0  0  0  0  0  0  0  0  0  0  0
  -12.8888  -20.6031    8.7754 C   0  0  0  0  0  0  0  0  0  0  0  0
  1  2  1  0
  1 13  1  0
  2  3  2  0
  2  4  1  0
  4  5  2  0
  4 12  1  0
  5  6  1  0
  5  9  1  0
  6  7  2  0
  7  8  1  0
  8  9  1  0
  9 10  2  0
 10 11  1  0
 11 12  2  0
 13 14  2  0
 13 17  1  0
 14 15  1  0
 15 16  2  0
 15 32  1  0
 16 17  1  0
 17 18  1  0
 18 19  2  0
 18 23  1  0
 19 20  1  0
 20 21  2  0
 21 22  1  0
 22 23  2  0
 22 31  1  0
 23 24  1  0
 24 25  2  0
 25 26  1  0
 25 28  1  0
 26 27  1  0
 28 29  1  0
 28 31  2  0
 29 30  1  0
 32 33  2  0
 32 37  1  0
 33 34  1  0
 34 35  2  0
 35 36  1  0
 36 37  2  0
M  END
>  <Gold.Gold.Protein.RotatedWaterAtoms>  (371) 


>  <Gold.Id.Protein>  (371) 


>  <Gold.PLP.Chemscore.CHOScore>  (371) 
1.0000

>  <Gold.PLP.Chemscore.Hbond>  (371) 
1.7840

>  <Gold.PLP.Chemscore.Internal.Correction>  (371) 
2.0129

>  <Gold.PLP.Chemscore.Metal>  (371) 
0.0000

>  <Gold.PLP.Fitness>  (371) 
67.1318

>  <Gold.PLP.PLP>  (371) 
-61.1747

>  <Gold.PLP.ligand.clash>  (371) 
0.0000

>  <Gold.PLP.ligand.torsion>  (371) 
2.2039

>  <Gold.PLP.part.buried>  (371) 
-10.9742

>  <Gold.PLP.part.hbond>  (371) 
-2.8667

>  <Gold.PLP.part.metal>  (371) 
0.0000

>  <Gold.PLP.part.nonpolar>  (371) 
-48.1333

>  <Gold.PLP.part.repulsive>  (371) 
0.3389

>  <Gold.Protein.RotatedAtoms>  (371) 


>  <Gold.Protein.RotatedTorsions>  (371) 


>  <Gold.Protein.RotatedWaterAtoms>  (371) 


>  <Gold.Version>  (371) 
5.3.0

>  <PLP.Chemscore.CHOScore>  (371) 


>  <PLP.Chemscore.Hbond>  (371) 


>  <PLP.Chemscore.Internal.Correction>  (371) 


>  <PLP.Chemscore.Metal>  (371) 


>  <PLP.Fitness>  (371) 


>  <PLP.PLP>  (371) 


>  <PLP.ligand.clash>  (371) 


>  <PLP.ligand.torsion>  (371) 


>  <PLP.part.buried>  (371) 


>  <PLP.part.hbond>  (371) 


>  <PLP.part.metal>  (371) 


>  <PLP.part.nonpolar>  (371) 


>  <PLP.part.repulsive>  (371) 


>  <Version>  (371) 


$$$$
3371|Compound_2080|Compounds_3D_F|sdf|603|dock3|1
     RDKit          3D

 37 42  0  0  0  0  0  0  0  0999 V2000
   -8.1992  -14.7917   10.8788 N   0  0  0  0  0  0  0  0  0  0  0  0
   -8.8301  -13.8711   11.6351 C   0  0  0  0  0  0  0  0  0  0  0  0
   -9.8485  -14.1686   12.2298 O   0  0  0  0  0  0  0  0  0  0  0  0
   -8.2862  -12.5061   11.7419 C   0  0  0  0  0  0  0  0  0  0  0  0
   -6.9458  -12.3021   12.1308 C   0  0  0  0  0  0  0  0  0  0  0  0
   -5.9391  -13.1341   12.4635 N   0  0  0  0  0  0  0  0  0  0  0  0
   -4.8727  -12.4420   12.7523 C   0  0  0  0  0  0  0  0  0  0  0  0
   -5.1305  -11.1143   12.6226 N   0  0  0  0  0  0  0  0  0  0  0  0
   -6.4488  -10.9924   12.2270 C   0  0  0  0  0  0  0  0  0  0  0  0
   -7.2722   -9.9139   11.9387 C   0  0  0  0  0  0  0  0  0  0  0  0
   -8.5828  -10.1241   11.5570 C   0  0  0  0  0  0  0  0  0  0  0  0
   -9.0908  -11.4058   11.4535 C   0  0  0  0  0  0  0  0  0  0  0  0
   -8.7142  -16.0733   10.7749 C   0  0  0  0  0  0  0  0  0  0  0  0
   -9.9105  -16.3929   10.3394 N   0  0  0  0  0  0  0  0  0  0  0  0
  -10.0657  -17.7239   10.3764 C   0  0  0  0  0  0  0  0  0  0  0  0
   -8.9636  -18.2724   10.8374 N   0  0  0  0  0  0  0  0  0  0  0  0
   -8.0651  -17.2259   11.1005 N   0  0  0  0  0  0  0  0  0  0  0  0
   -6.7736  -17.3422   11.6008 C   0  0  0  0  0  0  0  0  0  0  0  0
   -6.3718  -16.6018   12.6237 N   0  0  0  0  0  0  0  0  0  0  0  0
   -5.1450  -16.7022   13.1101 C   0  0  0  0  0  0  0  0  0  0  0  0
   -4.2490  -17.5284   12.6224 N   0  0  0  0  0  0  0  0  0  0  0  0
   -4.5521  -18.3233   11.5866 C   0  0  0  0  0  0  0  0  0  0  0  0
   -5.8572  -18.2563   11.0350 C   0  0  0  0  0  0  0  0  0  0  0  0
   -6.1978  -19.0767    9.9524 C   0  0  0  0  0  0  0  0  0  0  0  0
   -5.2676  -19.9344    9.4375 C   0  0  0  0  0  0  0  0  0  0  0  0
   -5.5969  -20.7311    8.3864 O   0  0  0  0  0  0  0  0  0  0  0  0
   -6.9634  -21.1351    8.2814 C   0  0  0  0  0  0  0  0  0  0  0  0
   -3.9764  -20.0017    9.9809 C   0  0  0  0  0  0  0  0  0  0  0  0
   -3.0704  -20.8633    9.4507 O   0  0  0  0  0  0  0  0  0  0  0  0
   -2.0860  -21.3970   10.3384 C   0  0  0  0  0  0  0  0  0  0  0  0
   -3.6201  -19.2165   11.0417 C   0  0  0  0  0  0  0  0  0  0  0  0
  -11.2859  -18.4602    9.9630 C   0  0  0  0  0  0  0  0  0  0  0  0
  -12.3556  -17.7867    9.5596 N   0  0  0  0  0  0  0  0  0  0  0  0
  -13.4583  -18.4024    9.1847 C   0  0  0  0  0  0  0  0  0  0  0  0
  -13.5399  -19.7823    9.1975 C   0  0  0  0  0  0  0  0  0  0  0  0
  -12.4443  -20.5257    9.6128 C   0  0  0  0  0  0  0  0  0  0  0  0
  -11.2968  -19.8529    9.9965 C   0  0  0  0  0  0  0  0  0  0  0  0
  1  2  1  0
  1 13  1  0
  2  3  2  0
  2  4  1  0
  4  5  2  0
  4 12  1  0
  5  6  1  0
  5  9  1  0
  6  7  2  0
  7  8  1  0
  8  9  1  0
  9 10  2  0
 10 11  1  0
 11 12  2  0
 13 14  2  0
 13 17  1  0
 14 15  1  0
 15 16  2  0
 15 32  1  0
 16 17  1  0
 17 18  1  0
 18 19  2  0
 18 23  1  0
 19 20  1  0
 20 21  2  0
 21 22  1  0
 22 23  2  0
 22 31  1  0
 23 24  1  0
 24 25  2  0
 25 26  1  0
 25 28  1  0
 26 27  1  0
 28 29  1  0
 28 31  2  0
 29 30  1  0
 32 33  2  0
 32 37  1  0
 33 34  1  0
 34 35  2  0
 35 36  1  0
 36 37  2  0
M  END
>  <Gold.Gold.Protein.RotatedWaterAtoms>  (372) 


>  <Gold.Id.Protein>  (372) 


>  <Gold.PLP.Chemscore.CHOScore>  (372) 
0.9990

>  <Gold.PLP.Chemscore.Hbond>  (372) 
1.4836

>  <Gold.PLP.Chemscore.Internal.Correction>  (372) 
2.0065

>  <Gold.PLP.Chemscore.Metal>  (372) 
0.0000

>  <Gold.PLP.Fitness>  (372) 
74.4053

>  <Gold.PLP.PLP>  (372) 
-71.1990

>  <Gold.PLP.ligand.clash>  (372) 
0.0000

>  <Gold.PLP.ligand.torsion>  (372) 
3.1240

>  <Gold.PLP.part.buried>  (372) 
-8.3986

>  <Gold.PLP.part.hbond>  (372) 
-3.5328

>  <Gold.PLP.part.metal>  (372) 
0.0000

>  <Gold.PLP.part.nonpolar>  (372) 
-61.9175

>  <Gold.PLP.part.repulsive>  (372) 
0.6928

>  <Gold.Protein.RotatedAtoms>  (372) 


>  <Gold.Protein.RotatedTorsions>  (372) 


>  <Gold.Protein.RotatedWaterAtoms>  (372) 


>  <Gold.Version>  (372) 
5.3.0

>  <PLP.Chemscore.CHOScore>  (372) 


>  <PLP.Chemscore.Hbond>  (372) 


>  <PLP.Chemscore.Internal.Correction>  (372) 


>  <PLP.Chemscore.Metal>  (372) 


>  <PLP.Fitness>  (372) 


>  <PLP.PLP>  (372) 


>  <PLP.ligand.clash>  (372) 


>  <PLP.ligand.torsion>  (372) 


>  <PLP.part.buried>  (372) 


>  <PLP.part.hbond>  (372) 


>  <PLP.part.metal>  (372) 


>  <PLP.part.nonpolar>  (372) 


>  <PLP.part.repulsive>  (372) 


>  <Version>  (372) 


$$$$
3372|Compound_2080|Compounds_3D_F|sdf|603|dock4|1
     RDKit          3D

 37 42  0  0  0  0  0  0  0  0999 V2000
   -8.1043  -15.0552   11.9171 N   0  0  0  0  0  0  0  0  0  0  0  0
   -8.6906  -13.9343   11.4508 C   0  0  0  0  0  0  0  0  0  0  0  0
   -9.7339  -14.0081   10.8300 O   0  0  0  0  0  0  0  0  0  0  0  0
   -8.0686  -12.6210   11.6933 C   0  0  0  0  0  0  0  0  0  0  0  0
   -6.7764  -12.5375   12.2523 C   0  0  0  0  0  0  0  0  0  0  0  0
   -5.8809  -13.4579   12.6614 N   0  0  0  0  0  0  0  0  0  0  0  0
   -4.8125  -12.8627   13.1131 C   0  0  0  0  0  0  0  0  0  0  0  0
   -4.9570  -11.5149   13.0219 N   0  0  0  0  0  0  0  0  0  0  0  0
   -6.2035  -11.2751   12.4758 C   0  0  0  0  0  0  0  0  0  0  0  0
   -6.9055  -10.1252   12.1458 C   0  0  0  0  0  0  0  0  0  0  0  0
   -8.1697  -10.2176   11.5973 C   0  0  0  0  0  0  0  0  0  0  0  0
   -8.7506  -11.4507   11.3666 C   0  0  0  0  0  0  0  0  0  0  0  0
   -8.6871  -16.2899   11.6840 C   0  0  0  0  0  0  0  0  0  0  0  0
   -9.9745  -16.5379   11.6221 N   0  0  0  0  0  0  0  0  0  0  0  0
  -10.1739  -17.8414   11.3809 C   0  0  0  0  0  0  0  0  0  0  0  0
   -9.0095  -18.4436   11.2843 N   0  0  0  0  0  0  0  0  0  0  0  0
   -8.0241  -17.4609   11.4717 N   0  0  0  0  0  0  0  0  0  0  0  0
   -6.6469  -17.6472   11.4523 C   0  0  0  0  0  0  0  0  0  0  0  0
   -5.8398  -16.8183   12.0984 N   0  0  0  0  0  0  0  0  0  0  0  0
   -4.5267  -16.9838   12.0883 C   0  0  0  0  0  0  0  0  0  0  0  0
   -3.9356  -17.9647   11.4466 N   0  0  0  0  0  0  0  0  0  0  0  0
   -4.6597  -18.8598   10.7605 C   0  0  0  0  0  0  0  0  0  0  0  0
   -6.0720  -18.7278   10.7472 C   0  0  0  0  0  0  0  0  0  0  0  0
   -6.8503  -19.6506   10.0373 C   0  0  0  0  0  0  0  0  0  0  0  0
   -6.2400  -20.6701    9.3633 C   0  0  0  0  0  0  0  0  0  0  0  0
   -6.9944  -21.5664    8.6736 O   0  0  0  0  0  0  0  0  0  0  0  0
   -8.3182  -21.8064    9.1544 C   0  0  0  0  0  0  0  0  0  0  0  0
   -4.8438  -20.8020    9.3746 C   0  0  0  0  0  0  0  0  0  0  0  0
   -4.2619  -21.8249    8.6966 O   0  0  0  0  0  0  0  0  0  0  0  0
   -3.0326  -22.3330    9.2186 C   0  0  0  0  0  0  0  0  0  0  0  0
   -4.0613  -19.9187   10.0647 C   0  0  0  0  0  0  0  0  0  0  0  0
  -11.4970  -18.4991   11.2444 C   0  0  0  0  0  0  0  0  0  0  0  0
  -12.2776  -18.1992   10.2140 N   0  0  0  0  0  0  0  0  0  0  0  0
  -13.4590  -18.7604   10.0566 C   0  0  0  0  0  0  0  0  0  0  0  0
  -13.9302  -19.6893   10.9655 C   0  0  0  0  0  0  0  0  0  0  0  0
  -13.1462  -20.0317   12.0580 C   0  0  0  0  0  0  0  0  0  0  0  0
  -11.9069  -19.4303   12.1960 C   0  0  0  0  0  0  0  0  0  0  0  0
  1  2  1  0
  1 13  1  0
  2  3  2  0
  2  4  1  0
  4  5  2  0
  4 12  1  0
  5  6  1  0
  5  9  1  0
  6  7  2  0
  7  8  1  0
  8  9  1  0
  9 10  2  0
 10 11  1  0
 11 12  2  0
 13 14  2  0
 13 17  1  0
 14 15  1  0
 15 16  2  0
 15 32  1  0
 16 17  1  0
 17 18  1  0
 18 19  2  0
 18 23  1  0
 19 20  1  0
 20 21  2  0
 21 22  1  0
 22 23  2  0
 22 31  1  0
 23 24  1  0
 24 25  2  0
 25 26  1  0
 25 28  1  0
 26 27  1  0
 28 29  1  0
 28 31  2  0
 29 30  1  0
 32 33  2  0
 32 37  1  0
 33 34  1  0
 34 35  2  0
 35 36  1  0
 36 37  2  0
M  END
>  <Gold.Gold.Protein.RotatedWaterAtoms>  (373) 


>  <Gold.Id.Protein>  (373) 


>  <Gold.PLP.Chemscore.CHOScore>  (373) 
1.0000

>  <Gold.PLP.Chemscore.Hbond>  (373) 
1.7440

>  <Gold.PLP.Chemscore.Internal.Correction>  (373) 
2.0065

>  <Gold.PLP.Chemscore.Metal>  (373) 
0.0000

>  <Gold.PLP.Fitness>  (373) 
78.4310

>  <Gold.PLP.PLP>  (373) 
-73.2650

>  <Gold.PLP.ligand.clash>  (373) 
0.0000

>  <Gold.PLP.ligand.torsion>  (373) 
2.5363

>  <Gold.PLP.part.buried>  (373) 
-8.4979

>  <Gold.PLP.part.hbond>  (373) 
-3.6734

>  <Gold.PLP.part.metal>  (373) 
0.0000

>  <Gold.PLP.part.nonpolar>  (373) 
-64.7975

>  <Gold.PLP.part.repulsive>  (373) 
2.3719

>  <Gold.Protein.RotatedAtoms>  (373) 


>  <Gold.Protein.RotatedTorsions>  (373) 


>  <Gold.Protein.RotatedWaterAtoms>  (373) 


>  <Gold.Version>  (373) 
5.3.0

>  <PLP.Chemscore.CHOScore>  (373) 


>  <PLP.Chemscore.Hbond>  (373) 


>  <PLP.Chemscore.Internal.Correction>  (373) 


>  <PLP.Chemscore.Metal>  (373) 


>  <PLP.Fitness>  (373) 


>  <PLP.PLP>  (373) 


>  <PLP.ligand.clash>  (373) 


>  <PLP.ligand.torsion>  (373) 


>  <PLP.part.buried>  (373) 


>  <PLP.part.hbond>  (373) 


>  <PLP.part.metal>  (373) 


>  <PLP.part.nonpolar>  (373) 


>  <PLP.part.repulsive>  (373) 


>  <Version>  (373) 


$$$$
3373|Compound_2080|Compounds_3D_F|sdf|603|dock5|1
     RDKit          3D

 37 42  0  0  0  0  0  0  0  0999 V2000
   -8.5088  -17.2047   10.3648 N   0  0  0  0  0  0  0  0  0  0  0  0
   -8.9069  -16.3591   11.3364 C   0  0  0  0  0  0  0  0  0  0  0  0
   -9.9633  -16.5466   11.9091 O   0  0  0  0  0  0  0  0  0  0  0  0
   -8.0628  -15.2091   11.7047 C   0  0  0  0  0  0  0  0  0  0  0  0
   -6.6659  -15.3613   11.8266 C   0  0  0  0  0  0  0  0  0  0  0  0
   -5.8294  -16.4070   11.6744 N   0  0  0  0  0  0  0  0  0  0  0  0
   -4.6034  -16.0275   11.9036 C   0  0  0  0  0  0  0  0  0  0  0  0
   -4.5767  -14.7064   12.2197 N   0  0  0  0  0  0  0  0  0  0  0  0
   -5.8810  -14.2518   12.1797 C   0  0  0  0  0  0  0  0  0  0  0  0
   -6.4791  -13.0203   12.4028 C   0  0  0  0  0  0  0  0  0  0  0  0
   -7.8476  -12.8811   12.2793 C   0  0  0  0  0  0  0  0  0  0  0  0
   -8.6380  -13.9602   11.9298 C   0  0  0  0  0  0  0  0  0  0  0  0
   -9.3055  -18.2826   10.0156 C   0  0  0  0  0  0  0  0  0  0  0  0
  -10.6167  -18.2876    9.9558 N   0  0  0  0  0  0  0  0  0  0  0  0
  -11.0488  -19.5006    9.5829 C   0  0  0  0  0  0  0  0  0  0  0  0
  -10.0124  -20.2879    9.3982 N   0  0  0  0  0  0  0  0  0  0  0  0
   -8.8654  -19.5238    9.6668 N   0  0  0  0  0  0  0  0  0  0  0  0
   -7.5445  -19.9507    9.5980 C   0  0  0  0  0  0  0  0  0  0  0  0
   -6.5633  -19.0904    9.3676 N   0  0  0  0  0  0  0  0  0  0  0  0
   -5.3012  -19.4832    9.2995 C   0  0  0  0  0  0  0  0  0  0  0  0
   -4.9337  -20.7343    9.4511 N   0  0  0  0  0  0  0  0  0  0  0  0
   -5.8475  -21.6857    9.6883 C   0  0  0  0  0  0  0  0  0  0  0  0
   -7.2131  -21.3123    9.7765 C   0  0  0  0  0  0  0  0  0  0  0  0
   -8.1866  -22.2883   10.0235 C   0  0  0  0  0  0  0  0  0  0  0  0
   -7.8102  -23.5924   10.1766 C   0  0  0  0  0  0  0  0  0  0  0  0
   -8.7543  -24.5408   10.4161 O   0  0  0  0  0  0  0  0  0  0  0  0
   -9.9240  -24.1277   11.1249 C   0  0  0  0  0  0  0  0  0  0  0  0
   -6.4606  -23.9639   10.0890 C   0  0  0  0  0  0  0  0  0  0  0  0
   -6.1129  -25.2673   10.2456 O   0  0  0  0  0  0  0  0  0  0  0  0
   -4.8239  -25.5326   10.8024 C   0  0  0  0  0  0  0  0  0  0  0  0
   -5.4899  -23.0302    9.8552 C   0  0  0  0  0  0  0  0  0  0  0  0
  -12.4692  -19.8919    9.4066 C   0  0  0  0  0  0  0  0  0  0  0  0
  -12.7659  -21.0490    8.8288 N   0  0  0  0  0  0  0  0  0  0  0  0
  -14.0138  -21.4330    8.6532 C   0  0  0  0  0  0  0  0  0  0  0  0
  -15.0659  -20.6386    9.0691 C   0  0  0  0  0  0  0  0  0  0  0  0
  -14.8004  -19.4202    9.6777 C   0  0  0  0  0  0  0  0  0  0  0  0
  -13.4799  -19.0439    9.8540 C   0  0  0  0  0  0  0  0  0  0  0  0
  1  2  1  0
  1 13  1  0
  2  3  2  0
  2  4  1  0
  4  5  2  0
  4 12  1  0
  5  6  1  0
  5  9  1  0
  6  7  2  0
  7  8  1  0
  8  9  1  0
  9 10  2  0
 10 11  1  0
 11 12  2  0
 13 14  2  0
 13 17  1  0
 14 15  1  0
 15 16  2  0
 15 32  1  0
 16 17  1  0
 17 18  1  0
 18 19  2  0
 18 23  1  0
 19 20  1  0
 20 21  2  0
 21 22  1  0
 22 23  2  0
 22 31  1  0
 23 24  1  0
 24 25  2  0
 25 26  1  0
 25 28  1  0
 26 27  1  0
 28 29  1  0
 28 31  2  0
 29 30  1  0
 32 33  2  0
 32 37  1  0
 33 34  1  0
 34 35  2  0
 35 36  1  0
 36 37  2  0
M  END
>  <Gold.Gold.Protein.RotatedWaterAtoms>  (374) 


>  <Gold.Id.Protein>  (374) 


>  <Gold.PLP.Chemscore.CHOScore>  (374) 
0.0000

>  <Gold.PLP.Chemscore.Hbond>  (374) 
1.9120

>  <Gold.PLP.Chemscore.Internal.Correction>  (374) 
2.0065

>  <Gold.PLP.Chemscore.Metal>  (374) 
0.0000

>  <Gold.PLP.Fitness>  (374) 
65.9015

>  <Gold.PLP.PLP>  (374) 
-62.2979

>  <Gold.PLP.ligand.clash>  (374) 
0.0000

>  <Gold.PLP.ligand.torsion>  (374) 
2.0695

>  <Gold.PLP.part.buried>  (374) 
-9.7612

>  <Gold.PLP.part.hbond>  (374) 
-2.8950

>  <Gold.PLP.part.metal>  (374) 
0.0000

>  <Gold.PLP.part.nonpolar>  (374) 
-49.0165

>  <Gold.PLP.part.repulsive>  (374) 
0.2826

>  <Gold.Protein.RotatedAtoms>  (374) 


>  <Gold.Protein.RotatedTorsions>  (374) 


>  <Gold.Protein.RotatedWaterAtoms>  (374) 


>  <Gold.Version>  (374) 
5.3.0

>  <PLP.Chemscore.CHOScore>  (374) 


>  <PLP.Chemscore.Hbond>  (374) 


>  <PLP.Chemscore.Internal.Correction>  (374) 


>  <PLP.Chemscore.Metal>  (374) 


>  <PLP.Fitness>  (374) 


>  <PLP.PLP>  (374) 


>  <PLP.ligand.clash>  (374) 


>  <PLP.ligand.torsion>  (374) 


>  <PLP.part.buried>  (374) 


>  <PLP.part.hbond>  (374) 


>  <PLP.part.metal>  (374) 


>  <PLP.part.nonpolar>  (374) 


>  <PLP.part.repulsive>  (374) 


>  <Version>  (374) 


$$$$
3374|Compound_2080|Compounds_3D_F|sdf|603|dock6|1
     RDKit          3D

 37 42  0  0  0  0  0  0  0  0999 V2000
   -8.3492  -17.3020   10.5029 N   0  0  0  0  0  0  0  0  0  0  0  0
   -8.7557  -16.3624   11.3801 C   0  0  0  0  0  0  0  0  0  0  0  0
   -9.8814  -16.4064   11.8385 O   0  0  0  0  0  0  0  0  0  0  0  0
   -7.8371  -15.2837   11.7839 C   0  0  0  0  0  0  0  0  0  0  0  0
   -6.4476  -15.5177   11.8458 C   0  0  0  0  0  0  0  0  0  0  0  0
   -5.6762  -16.5958   11.6027 N   0  0  0  0  0  0  0  0  0  0  0  0
   -4.4240  -16.2972   11.8089 C   0  0  0  0  0  0  0  0  0  0  0  0
   -4.3133  -15.0008   12.2002 N   0  0  0  0  0  0  0  0  0  0  0  0
   -5.5908  -14.4753   12.2342 C   0  0  0  0  0  0  0  0  0  0  0  0
   -6.1115  -13.2291   12.5503 C   0  0  0  0  0  0  0  0  0  0  0  0
   -7.4735  -13.0094   12.4849 C   0  0  0  0  0  0  0  0  0  0  0  0
   -8.3341  -14.0215   12.1021 C   0  0  0  0  0  0  0  0  0  0  0  0
   -9.2153  -18.3128   10.1199 C   0  0  0  0  0  0  0  0  0  0  0  0
  -10.5260  -18.2694   10.1732 N   0  0  0  0  0  0  0  0  0  0  0  0
  -11.0365  -19.4239    9.7220 C   0  0  0  0  0  0  0  0  0  0  0  0
  -10.0520  -20.2216    9.3724 N   0  0  0  0  0  0  0  0  0  0  0  0
   -8.8564  -19.5259    9.6145 N   0  0  0  0  0  0  0  0  0  0  0  0
   -7.5643  -19.9862    9.3905 C   0  0  0  0  0  0  0  0  0  0  0  0
   -6.6536  -19.2067    8.8256 N   0  0  0  0  0  0  0  0  0  0  0  0
   -5.4196  -19.6321    8.6064 C   0  0  0  0  0  0  0  0  0  0  0  0
   -5.0130  -20.8387    8.9257 N   0  0  0  0  0  0  0  0  0  0  0  0
   -5.8549  -21.7077    9.5024 C   0  0  0  0  0  0  0  0  0  0  0  0
   -7.1868  -21.2953    9.7635 C   0  0  0  0  0  0  0  0  0  0  0  0
   -8.0852  -22.1853   10.3652 C   0  0  0  0  0  0  0  0  0  0  0  0
   -7.6690  -23.4439   10.6945 C   0  0  0  0  0  0  0  0  0  0  0  0
   -8.5402  -24.3088   11.2783 O   0  0  0  0  0  0  0  0  0  0  0  0
   -9.5671  -23.7431   12.0950 C   0  0  0  0  0  0  0  0  0  0  0  0
   -6.3527  -23.8539   10.4366 C   0  0  0  0  0  0  0  0  0  0  0  0
   -5.9640  -25.1106   10.7742 O   0  0  0  0  0  0  0  0  0  0  0  0
   -4.9402  -25.7092    9.9772 C   0  0  0  0  0  0  0  0  0  0  0  0
   -5.4540  -23.0029    9.8561 C   0  0  0  0  0  0  0  0  0  0  0  0
  -12.4814  -19.7493    9.6314 C   0  0  0  0  0  0  0  0  0  0  0  0
  -13.3330  -19.2077   10.4930 N   0  0  0  0  0  0  0  0  0  0  0  0
  -14.6230  -19.4708   10.4467 C   0  0  0  0  0  0  0  0  0  0  0  0
  -15.1389  -20.3259    9.4909 C   0  0  0  0  0  0  0  0  0  0  0  0
  -14.2835  -20.9145    8.5706 C   0  0  0  0  0  0  0  0  0  0  0  0
  -12.9333  -20.6164    8.6392 C   0  0  0  0  0  0  0  0  0  0  0  0
  1  2  1  0
  1 13  1  0
  2  3  2  0
  2  4  1  0
  4  5  2  0
  4 12  1  0
  5  6  1  0
  5  9  1  0
  6  7  2  0
  7  8  1  0
  8  9  1  0
  9 10  2  0
 10 11  1  0
 11 12  2  0
 13 14  2  0
 13 17  1  0
 14 15  1  0
 15 16  2  0
 15 32  1  0
 16 17  1  0
 17 18  1  0
 18 19  2  0
 18 23  1  0
 19 20  1  0
 20 21  2  0
 21 22  1  0
 22 23  2  0
 22 31  1  0
 23 24  1  0
 24 25  2  0
 25 26  1  0
 25 28  1  0
 26 27  1  0
 28 29  1  0
 28 31  2  0
 29 30  1  0
 32 33  2  0
 32 37  1  0
 33 34  1  0
 34 35  2  0
 35 36  1  0
 36 37  2  0
M  END
>  <Gold.Gold.Protein.RotatedWaterAtoms>  (375) 


>  <Gold.Id.Protein>  (375) 


>  <Gold.PLP.Chemscore.CHOScore>  (375) 
1.0000

>  <Gold.PLP.Chemscore.Hbond>  (375) 
1.8000

>  <Gold.PLP.Chemscore.Internal.Correction>  (375) 
1.9939

>  <Gold.PLP.Chemscore.Metal>  (375) 
0.0000

>  <Gold.PLP.Fitness>  (375) 
66.6722

>  <Gold.PLP.PLP>  (375) 
-61.0400

>  <Gold.PLP.ligand.clash>  (375) 
0.0000

>  <Gold.PLP.ligand.torsion>  (375) 
2.3808

>  <Gold.PLP.part.buried>  (375) 
-11.0833

>  <Gold.PLP.part.hbond>  (375) 
-2.7706

>  <Gold.PLP.part.metal>  (375) 
0.0000

>  <Gold.PLP.part.nonpolar>  (375) 
-47.4669

>  <Gold.PLP.part.repulsive>  (375) 
0.3119

>  <Gold.Protein.RotatedAtoms>  (375) 


>  <Gold.Protein.RotatedTorsions>  (375) 


>  <Gold.Protein.RotatedWaterAtoms>  (375) 


>  <Gold.Version>  (375) 
5.3.0

>  <PLP.Chemscore.CHOScore>  (375) 


>  <PLP.Chemscore.Hbond>  (375) 


>  <PLP.Chemscore.Internal.Correction>  (375) 


>  <PLP.Chemscore.Metal>  (375) 


>  <PLP.Fitness>  (375) 


>  <PLP.PLP>  (375) 


>  <PLP.ligand.clash>  (375) 


>  <PLP.ligand.torsion>  (375) 


>  <PLP.part.buried>  (375) 


>  <PLP.part.hbond>  (375) 


>  <PLP.part.metal>  (375) 


>  <PLP.part.nonpolar>  (375) 


>  <PLP.part.repulsive>  (375) 


>  <Version>  (375) 


$$$$
3375|Compound_2080|Compounds_3D_F|sdf|603|dock7|1
     RDKit          3D

 37 42  0  0  0  0  0  0  0  0999 V2000
   -8.0590  -15.3626   11.2312 N   0  0  0  0  0  0  0  0  0  0  0  0
   -8.6834  -14.1679   11.2137 C   0  0  0  0  0  0  0  0  0  0  0  0
   -9.8553  -14.1000   10.8954 O   0  0  0  0  0  0  0  0  0  0  0  0
   -7.9473  -12.9456   11.5805 C   0  0  0  0  0  0  0  0  0  0  0  0
   -6.6594  -13.0335   12.1489 C   0  0  0  0  0  0  0  0  0  0  0  0
   -5.8563  -14.0663   12.4724 N   0  0  0  0  0  0  0  0  0  0  0  0
   -4.7434  -13.6165   12.9814 C   0  0  0  0  0  0  0  0  0  0  0  0
   -4.7636  -12.2585   13.0167 N   0  0  0  0  0  0  0  0  0  0  0  0
   -5.9765  -11.8554   12.4917 C   0  0  0  0  0  0  0  0  0  0  0  0
   -6.5670  -10.6202   12.2690 C   0  0  0  0  0  0  0  0  0  0  0  0
   -7.8279  -10.5446   11.7104 C   0  0  0  0  0  0  0  0  0  0  0  0
   -8.5159  -11.6923   11.3631 C   0  0  0  0  0  0  0  0  0  0  0  0
   -8.7505  -16.5106   10.8812 C   0  0  0  0  0  0  0  0  0  0  0  0
  -10.0410  -16.7077   11.0176 N   0  0  0  0  0  0  0  0  0  0  0  0
  -10.3619  -17.9314   10.5741 C   0  0  0  0  0  0  0  0  0  0  0  0
   -9.2741  -18.5323   10.1459 N   0  0  0  0  0  0  0  0  0  0  0  0
   -8.2114  -17.6326   10.3278 N   0  0  0  0  0  0  0  0  0  0  0  0
   -6.8747  -17.8470   10.0130 C   0  0  0  0  0  0  0  0  0  0  0  0
   -6.0398  -16.8287    9.8647 N   0  0  0  0  0  0  0  0  0  0  0  0
   -4.7646  -17.0183    9.5649 C   0  0  0  0  0  0  0  0  0  0  0  0
   -4.2409  -18.2098    9.3937 N   0  0  0  0  0  0  0  0  0  0  0  0
   -4.9985  -19.3083    9.5208 C   0  0  0  0  0  0  0  0  0  0  0  0
   -6.3703  -19.1561    9.8478 C   0  0  0  0  0  0  0  0  0  0  0  0
   -7.1824  -20.2887    9.9858 C   0  0  0  0  0  0  0  0  0  0  0  0
   -6.6439  -21.5307    9.8033 C   0  0  0  0  0  0  0  0  0  0  0  0
   -7.4311  -22.6309    9.9368 O   0  0  0  0  0  0  0  0  0  0  0  0
   -8.5436  -22.5286   10.8275 C   0  0  0  0  0  0  0  0  0  0  0  0
   -5.2879  -21.6834    9.4793 C   0  0  0  0  0  0  0  0  0  0  0  0
   -4.7772  -22.9294    9.3036 O   0  0  0  0  0  0  0  0  0  0  0  0
   -3.3999  -23.1187    9.6340 C   0  0  0  0  0  0  0  0  0  0  0  0
   -4.4720  -20.5948    9.3449 C   0  0  0  0  0  0  0  0  0  0  0  0
  -11.7265  -18.5141   10.5673 C   0  0  0  0  0  0  0  0  0  0  0  0
  -12.4847  -18.4267   11.6528 N   0  0  0  0  0  0  0  0  0  0  0  0
  -13.7012  -18.9310   11.6877 C   0  0  0  0  0  0  0  0  0  0  0  0
  -14.2352  -19.5729   10.5860 C   0  0  0  0  0  0  0  0  0  0  0  0
  -13.4762  -19.6871    9.4300 C   0  0  0  0  0  0  0  0  0  0  0  0
  -12.2030  -19.1436    9.4195 C   0  0  0  0  0  0  0  0  0  0  0  0
  1  2  1  0
  1 13  1  0
  2  3  2  0
  2  4  1  0
  4  5  2  0
  4 12  1  0
  5  6  1  0
  5  9  1  0
  6  7  2  0
  7  8  1  0
  8  9  1  0
  9 10  2  0
 10 11  1  0
 11 12  2  0
 13 14  2  0
 13 17  1  0
 14 15  1  0
 15 16  2  0
 15 32  1  0
 16 17  1  0
 17 18  1  0
 18 19  2  0
 18 23  1  0
 19 20  1  0
 20 21  2  0
 21 22  1  0
 22 23  2  0
 22 31  1  0
 23 24  1  0
 24 25  2  0
 25 26  1  0
 25 28  1  0
 26 27  1  0
 28 29  1  0
 28 31  2  0
 29 30  1  0
 32 33  2  0
 32 37  1  0
 33 34  1  0
 34 35  2  0
 35 36  1  0
 36 37  2  0
M  END
>  <Gold.Gold.Protein.RotatedWaterAtoms>  (376) 


>  <Gold.Id.Protein>  (376) 


>  <Gold.PLP.Chemscore.CHOScore>  (376) 
2.7272

>  <Gold.PLP.Chemscore.Hbond>  (376) 
1.6560

>  <Gold.PLP.Chemscore.Internal.Correction>  (376) 
1.9939

>  <Gold.PLP.Chemscore.Metal>  (376) 
0.0000

>  <Gold.PLP.Fitness>  (376) 
75.7775

>  <Gold.PLP.PLP>  (376) 
-65.0433

>  <Gold.PLP.ligand.clash>  (376) 
0.5087

>  <Gold.PLP.ligand.torsion>  (376) 
1.9502

>  <Gold.PLP.part.buried>  (376) 
-7.0336

>  <Gold.PLP.part.hbond>  (376) 
-2.9943

>  <Gold.PLP.part.metal>  (376) 
0.0000

>  <Gold.PLP.part.nonpolar>  (376) 
-57.6600

>  <Gold.PLP.part.repulsive>  (376) 
1.8280

>  <Gold.Protein.RotatedAtoms>  (376) 


>  <Gold.Protein.RotatedTorsions>  (376) 


>  <Gold.Protein.RotatedWaterAtoms>  (376) 


>  <Gold.Version>  (376) 
5.3.0

>  <PLP.Chemscore.CHOScore>  (376) 


>  <PLP.Chemscore.Hbond>  (376) 


>  <PLP.Chemscore.Internal.Correction>  (376) 


>  <PLP.Chemscore.Metal>  (376) 


>  <PLP.Fitness>  (376) 


>  <PLP.PLP>  (376) 


>  <PLP.ligand.clash>  (376) 


>  <PLP.ligand.torsion>  (376) 


>  <PLP.part.buried>  (376) 


>  <PLP.part.hbond>  (376) 


>  <PLP.part.metal>  (376) 


>  <PLP.part.nonpolar>  (376) 


>  <PLP.part.repulsive>  (376) 


>  <Version>  (376) 


$$$$
3376|Compound_2080|Compounds_3D_F|sdf|603|dock8|1
     RDKit          3D

 37 42  0  0  0  0  0  0  0  0999 V2000
   -7.9534  -15.0290   11.6358 N   0  0  0  0  0  0  0  0  0  0  0  0
   -8.7237  -13.9263   11.7259 C   0  0  0  0  0  0  0  0  0  0  0  0
   -9.9355  -14.0290   11.7050 O   0  0  0  0  0  0  0  0  0  0  0  0
   -8.0987  -12.5981   11.8504 C   0  0  0  0  0  0  0  0  0  0  0  0
   -6.7821  -12.4739   12.3409 C   0  0  0  0  0  0  0  0  0  0  0  0
   -5.8631  -13.3624   12.7680 N   0  0  0  0  0  0  0  0  0  0  0  0
   -4.7781  -12.7355   13.1279 C   0  0  0  0  0  0  0  0  0  0  0  0
   -4.9345  -11.3972   12.9536 N   0  0  0  0  0  0  0  0  0  0  0  0
   -6.2066  -11.1979   12.4521 C   0  0  0  0  0  0  0  0  0  0  0  0
   -6.9299  -10.0746   12.0793 C   0  0  0  0  0  0  0  0  0  0  0  0
   -8.2179  -10.2068   11.5985 C   0  0  0  0  0  0  0  0  0  0  0  0
   -8.8019  -11.4542   11.4786 C   0  0  0  0  0  0  0  0  0  0  0  0
   -8.5419  -16.2769   11.5136 C   0  0  0  0  0  0  0  0  0  0  0  0
   -9.8304  -16.5273   11.5126 N   0  0  0  0  0  0  0  0  0  0  0  0
  -10.0359  -17.8448   11.3746 C   0  0  0  0  0  0  0  0  0  0  0  0
   -8.8745  -18.4538   11.2841 N   0  0  0  0  0  0  0  0  0  0  0  0
   -7.8848  -17.4611   11.3661 N   0  0  0  0  0  0  0  0  0  0  0  0
   -6.5088  -17.6498   11.3148 C   0  0  0  0  0  0  0  0  0  0  0  0
   -5.6812  -16.7684   11.8573 N   0  0  0  0  0  0  0  0  0  0  0  0
   -4.3689  -16.9356   11.8157 C   0  0  0  0  0  0  0  0  0  0  0  0
   -3.7987  -17.9695   11.2421 N   0  0  0  0  0  0  0  0  0  0  0  0
   -4.5445  -18.9205   10.6626 C   0  0  0  0  0  0  0  0  0  0  0  0
   -5.9567  -18.7886   10.6873 C   0  0  0  0  0  0  0  0  0  0  0  0
   -6.7575  -19.7692   10.0885 C   0  0  0  0  0  0  0  0  0  0  0  0
   -6.1691  -20.8443    9.4853 C   0  0  0  0  0  0  0  0  0  0  0  0
   -6.9453  -21.7967    8.9035 O   0  0  0  0  0  0  0  0  0  0  0  0
   -8.2412  -22.0105    9.4661 C   0  0  0  0  0  0  0  0  0  0  0  0
   -4.7731  -20.9763    9.4593 C   0  0  0  0  0  0  0  0  0  0  0  0
   -4.2132  -22.0552    8.8534 O   0  0  0  0  0  0  0  0  0  0  0  0
   -2.9654  -22.5170    9.3745 C   0  0  0  0  0  0  0  0  0  0  0  0
   -3.9687  -20.0369   10.0417 C   0  0  0  0  0  0  0  0  0  0  0  0
  -11.3620  -18.5093   11.3307 C   0  0  0  0  0  0  0  0  0  0  0  0
  -12.1328  -18.5114   12.4108 N   0  0  0  0  0  0  0  0  0  0  0  0
  -13.3162  -19.0902   12.4132 C   0  0  0  0  0  0  0  0  0  0  0  0
  -13.8007  -19.7196   11.2818 C   0  0  0  0  0  0  0  0  0  0  0  0
  -13.0268  -19.7413   10.1303 C   0  0  0  0  0  0  0  0  0  0  0  0
  -11.7894  -19.1208   10.1543 C   0  0  0  0  0  0  0  0  0  0  0  0
  1  2  1  0
  1 13  1  0
  2  3  2  0
  2  4  1  0
  4  5  2  0
  4 12  1  0
  5  6  1  0
  5  9  1  0
  6  7  2  0
  7  8  1  0
  8  9  1  0
  9 10  2  0
 10 11  1  0
 11 12  2  0
 13 14  2  0
 13 17  1  0
 14 15  1  0
 15 16  2  0
 15 32  1  0
 16 17  1  0
 17 18  1  0
 18 19  2  0
 18 23  1  0
 19 20  1  0
 20 21  2  0
 21 22  1  0
 22 23  2  0
 22 31  1  0
 23 24  1  0
 24 25  2  0
 25 26  1  0
 25 28  1  0
 26 27  1  0
 28 29  1  0
 28 31  2  0
 29 30  1  0
 32 33  2  0
 32 37  1  0
 33 34  1  0
 34 35  2  0
 35 36  1  0
 36 37  2  0
M  END
>  <Gold.Gold.Protein.RotatedWaterAtoms>  (377) 


>  <Gold.Id.Protein>  (377) 


>  <Gold.PLP.Chemscore.CHOScore>  (377) 
1.9040

>  <Gold.PLP.Chemscore.Hbond>  (377) 
2.4400

>  <Gold.PLP.Chemscore.Internal.Correction>  (377) 
1.9939

>  <Gold.PLP.Chemscore.Metal>  (377) 
0.0000

>  <Gold.PLP.Fitness>  (377) 
82.4330

>  <Gold.PLP.PLP>  (377) 
-72.3757

>  <Gold.PLP.ligand.clash>  (377) 
0.0000

>  <Gold.PLP.ligand.torsion>  (377) 
2.4843

>  <Gold.PLP.part.buried>  (377) 
-7.8327

>  <Gold.PLP.part.hbond>  (377) 
-3.6665

>  <Gold.PLP.part.metal>  (377) 
0.0000

>  <Gold.PLP.part.nonpolar>  (377) 
-63.1838

>  <Gold.PLP.part.repulsive>  (377) 
0.6982

>  <Gold.Protein.RotatedAtoms>  (377) 


>  <Gold.Protein.RotatedTorsions>  (377) 


>  <Gold.Protein.RotatedWaterAtoms>  (377) 


>  <Gold.Version>  (377) 
5.3.0

>  <PLP.Chemscore.CHOScore>  (377) 


>  <PLP.Chemscore.Hbond>  (377) 


>  <PLP.Chemscore.Internal.Correction>  (377) 


>  <PLP.Chemscore.Metal>  (377) 


>  <PLP.Fitness>  (377) 


>  <PLP.PLP>  (377) 


>  <PLP.ligand.clash>  (377) 


>  <PLP.ligand.torsion>  (377) 


>  <PLP.part.buried>  (377) 


>  <PLP.part.hbond>  (377) 


>  <PLP.part.metal>  (377) 


>  <PLP.part.nonpolar>  (377) 


>  <PLP.part.repulsive>  (377) 


>  <Version>  (377) 


$$$$
3377|Compound_2083|Compounds_3D_F|sdf|604|dock1|1
     RDKit          3D

 20 22  0  0  0  0  0  0  0  0999 V2000
  -13.3938  -19.7925   13.1991 O   0  0  0  0  0  0  0  0  0  0  0  0
  -12.4775  -19.4530   12.2607 C   0  0  0  0  0  0  0  0  0  0  0  0
  -12.2919  -20.2532   11.2232 N   0  0  0  0  0  0  0  0  0  0  0  0
  -11.4050  -19.9567   10.2846 C   0  0  0  0  0  0  0  0  0  0  0  0
  -10.6666  -18.7936   10.3973 C   0  0  0  0  0  0  0  0  0  0  0  0
   -9.2520  -18.2772    8.9402 I   0  0  0  0  0  0  0  0  0  0  0  0
  -10.8858  -17.9707   11.5031 C   0  0  0  0  0  0  0  0  0  0  0  0
  -11.7948  -18.3291   12.4029 N   0  0  0  0  0  0  0  0  0  0  0  0
  -10.1668  -16.7920   11.6588 N   0  0  0  0  0  0  0  0  0  0  0  0
   -8.8203  -16.8151   11.6287 C   0  0  0  0  0  0  0  0  0  0  0  0
   -8.2334  -17.8671   11.4651 O   0  0  0  0  0  0  0  0  0  0  0  0
   -8.0574  -15.5644   11.7941 C   0  0  0  0  0  0  0  0  0  0  0  0
   -6.6539  -15.6003   11.9316 C   0  0  0  0  0  0  0  0  0  0  0  0
   -5.7478  -16.5968   11.9519 N   0  0  0  0  0  0  0  0  0  0  0  0
   -4.5522  -16.1033   12.1069 C   0  0  0  0  0  0  0  0  0  0  0  0
   -4.6161  -14.7483   12.1972 N   0  0  0  0  0  0  0  0  0  0  0  0
   -5.9475  -14.3954   12.0889 C   0  0  0  0  0  0  0  0  0  0  0  0
   -6.6292  -13.1881   12.1071 C   0  0  0  0  0  0  0  0  0  0  0  0
   -8.0034  -13.1640   11.9712 C   0  0  0  0  0  0  0  0  0  0  0  0
   -8.7163  -14.3375   11.8102 C   0  0  0  0  0  0  0  0  0  0  0  0
  1  2  1  0
  2  3  2  0
  2  8  1  0
  3  4  1  0
  4  5  2  0
  5  6  1  0
  5  7  1  0
  7  8  2  0
  7  9  1  0
  9 10  1  0
 10 11  2  0
 10 12  1  0
 12 13  2  0
 12 20  1  0
 13 14  1  0
 13 17  1  0
 14 15  2  0
 15 16  1  0
 16 17  1  0
 17 18  2  0
 18 19  1  0
 19 20  2  0
M  END
>  <Gold.Gold.Protein.RotatedWaterAtoms>  (378) 


>  <Gold.Id.Protein>  (378) 


>  <Gold.PLP.Chemscore.CHOScore>  (378) 
0.0000

>  <Gold.PLP.Chemscore.Hbond>  (378) 
3.6160

>  <Gold.PLP.Chemscore.Internal.Correction>  (378) 
0.3303

>  <Gold.PLP.Chemscore.Metal>  (378) 
0.0000

>  <Gold.PLP.Fitness>  (378) 
54.3465

>  <Gold.PLP.PLP>  (378) 
-44.2045

>  <Gold.PLP.ligand.clash>  (378) 
0.0000

>  <Gold.PLP.ligand.torsion>  (378) 
0.5182

>  <Gold.PLP.part.buried>  (378) 
-7.2441

>  <Gold.PLP.part.hbond>  (378) 
-4.5942

>  <Gold.PLP.part.metal>  (378) 
0.0000

>  <Gold.PLP.part.nonpolar>  (378) 
-32.1016

>  <Gold.PLP.part.repulsive>  (378) 
0.3410

>  <Gold.Protein.RotatedAtoms>  (378) 


>  <Gold.Protein.RotatedTorsions>  (378) 


>  <Gold.Protein.RotatedWaterAtoms>  (378) 


>  <Gold.Version>  (378) 
5.3.0

>  <PLP.Chemscore.CHOScore>  (378) 


>  <PLP.Chemscore.Hbond>  (378) 


>  <PLP.Chemscore.Internal.Correction>  (378) 


>  <PLP.Chemscore.Metal>  (378) 


>  <PLP.Fitness>  (378) 


>  <PLP.PLP>  (378) 


>  <PLP.ligand.clash>  (378) 


>  <PLP.ligand.torsion>  (378) 


>  <PLP.part.buried>  (378) 


>  <PLP.part.hbond>  (378) 


>  <PLP.part.metal>  (378) 


>  <PLP.part.nonpolar>  (378) 


>  <PLP.part.repulsive>  (378) 


>  <Version>  (378) 


$$$$
3378|Compound_2083|Compounds_3D_F|sdf|604|dock2|1
     RDKit          3D

 20 22  0  0  0  0  0  0  0  0999 V2000
  -13.0867  -18.2421   12.5287 O   0  0  0  0  0  0  0  0  0  0  0  0
  -11.9273  -18.4961   11.8753 C   0  0  0  0  0  0  0  0  0  0  0  0
  -11.8528  -19.5543   11.0841 N   0  0  0  0  0  0  0  0  0  0  0  0
  -10.7369  -19.8370   10.4282 C   0  0  0  0  0  0  0  0  0  0  0  0
   -9.6389  -19.0107   10.5773 C   0  0  0  0  0  0  0  0  0  0  0  0
   -7.8504  -19.4118    9.5618 I   0  0  0  0  0  0  0  0  0  0  0  0
   -9.7492  -17.9025   11.4186 C   0  0  0  0  0  0  0  0  0  0  0  0
  -10.9011  -17.6782   12.0411 N   0  0  0  0  0  0  0  0  0  0  0  0
   -8.6718  -17.0442   11.5996 N   0  0  0  0  0  0  0  0  0  0  0  0
   -8.8851  -15.7534   11.9205 C   0  0  0  0  0  0  0  0  0  0  0  0
  -10.0203  -15.3388   12.0519 O   0  0  0  0  0  0  0  0  0  0  0  0
   -7.7418  -14.8426   12.1124 C   0  0  0  0  0  0  0  0  0  0  0  0
   -6.4227  -15.3419   12.0875 C   0  0  0  0  0  0  0  0  0  0  0  0
   -5.8976  -16.5704   11.9152 N   0  0  0  0  0  0  0  0  0  0  0  0
   -4.5980  -16.5080   11.9793 C   0  0  0  0  0  0  0  0  0  0  0  0
   -4.2038  -15.2256   12.1991 N   0  0  0  0  0  0  0  0  0  0  0  0
   -5.3482  -14.4550   12.2735 C   0  0  0  0  0  0  0  0  0  0  0  0
   -5.5896  -13.1050   12.4780 C   0  0  0  0  0  0  0  0  0  0  0  0
   -6.8849  -12.6263   12.4999 C   0  0  0  0  0  0  0  0  0  0  0  0
   -7.9554  -13.4811   12.3139 C   0  0  0  0  0  0  0  0  0  0  0  0
  1  2  1  0
  2  3  2  0
  2  8  1  0
  3  4  1  0
  4  5  2  0
  5  6  1  0
  5  7  1  0
  7  8  2  0
  7  9  1  0
  9 10  1  0
 10 11  2  0
 10 12  1  0
 12 13  2  0
 12 20  1  0
 13 14  1  0
 13 17  1  0
 14 15  2  0
 15 16  1  0
 16 17  1  0
 17 18  2  0
 18 19  1  0
 19 20  2  0
M  END
>  <Gold.Gold.Protein.RotatedWaterAtoms>  (379) 


>  <Gold.Id.Protein>  (379) 


>  <Gold.PLP.Chemscore.CHOScore>  (379) 
0.0000

>  <Gold.PLP.Chemscore.Hbond>  (379) 
2.1341

>  <Gold.PLP.Chemscore.Internal.Correction>  (379) 
0.3222

>  <Gold.PLP.Chemscore.Metal>  (379) 
0.0000

>  <Gold.PLP.Fitness>  (379) 
54.0907

>  <Gold.PLP.PLP>  (379) 
-47.7224

>  <Gold.PLP.ligand.clash>  (379) 
0.0077

>  <Gold.PLP.ligand.torsion>  (379) 
0.1742

>  <Gold.PLP.part.buried>  (379) 
-9.6346

>  <Gold.PLP.part.hbond>  (379) 
-2.9840

>  <Gold.PLP.part.metal>  (379) 
0.0000

>  <Gold.PLP.part.nonpolar>  (379) 
-35.0587

>  <Gold.PLP.part.repulsive>  (379) 
0.3864

>  <Gold.Protein.RotatedAtoms>  (379) 


>  <Gold.Protein.RotatedTorsions>  (379) 


>  <Gold.Protein.RotatedWaterAtoms>  (379) 


>  <Gold.Version>  (379) 
5.3.0

>  <PLP.Chemscore.CHOScore>  (379) 


>  <PLP.Chemscore.Hbond>  (379) 


>  <PLP.Chemscore.Internal.Correction>  (379) 


>  <PLP.Chemscore.Metal>  (379) 


>  <PLP.Fitness>  (379) 


>  <PLP.PLP>  (379) 


>  <PLP.ligand.clash>  (379) 


>  <PLP.ligand.torsion>  (379) 


>  <PLP.part.buried>  (379) 


>  <PLP.part.hbond>  (379) 


>  <PLP.part.metal>  (379) 


>  <PLP.part.nonpolar>  (379) 


>  <PLP.part.repulsive>  (379) 


>  <Version>  (379) 


$$$$
3379|Compound_2083|Compounds_3D_F|sdf|604|dock3|1
     RDKit          3D

 20 22  0  0  0  0  0  0  0  0999 V2000
  -11.8013  -18.0859   12.4214 O   0  0  0  0  0  0  0  0  0  0  0  0
  -10.5711  -17.9430   11.8720 C   0  0  0  0  0  0  0  0  0  0  0  0
  -10.0302  -18.9659   11.2299 N   0  0  0  0  0  0  0  0  0  0  0  0
   -8.8292  -18.8662   10.6793 C   0  0  0  0  0  0  0  0  0  0  0  0
   -8.1372  -17.6740   10.7811 C   0  0  0  0  0  0  0  0  0  0  0  0
   -6.2352  -17.4628    9.9275 I   0  0  0  0  0  0  0  0  0  0  0  0
   -8.7348  -16.6138   11.4645 C   0  0  0  0  0  0  0  0  0  0  0  0
   -9.9439  -16.7842   11.9875 N   0  0  0  0  0  0  0  0  0  0  0  0
   -8.0769  -15.3968   11.5927 N   0  0  0  0  0  0  0  0  0  0  0  0
   -8.7851  -14.2569   11.7095 C   0  0  0  0  0  0  0  0  0  0  0  0
  -10.0003  -14.2924   11.7030 O   0  0  0  0  0  0  0  0  0  0  0  0
   -8.0869  -12.9656   11.8453 C   0  0  0  0  0  0  0  0  0  0  0  0
   -6.7692  -12.9187   12.3467 C   0  0  0  0  0  0  0  0  0  0  0  0
   -5.9049  -13.8584   12.7762 N   0  0  0  0  0  0  0  0  0  0  0  0
   -4.7900  -13.2961   13.1473 C   0  0  0  0  0  0  0  0  0  0  0  0
   -4.8692  -11.9495   12.9787 N   0  0  0  0  0  0  0  0  0  0  0  0
   -6.1236  -11.6762   12.4681 C   0  0  0  0  0  0  0  0  0  0  0  0
   -6.7806  -10.5130   12.0965 C   0  0  0  0  0  0  0  0  0  0  0  0
   -8.0704  -10.5700   11.6063 C   0  0  0  0  0  0  0  0  0  0  0  0
   -8.7213  -11.7825   11.4741 C   0  0  0  0  0  0  0  0  0  0  0  0
  1  2  1  0
  2  3  2  0
  2  8  1  0
  3  4  1  0
  4  5  2  0
  5  6  1  0
  5  7  1  0
  7  8  2  0
  7  9  1  0
  9 10  1  0
 10 11  2  0
 10 12  1  0
 12 13  2  0
 12 20  1  0
 13 14  1  0
 13 17  1  0
 14 15  2  0
 15 16  1  0
 16 17  1  0
 17 18  2  0
 18 19  1  0
 19 20  2  0
M  END
>  <Gold.Gold.Protein.RotatedWaterAtoms>  (380) 


>  <Gold.Id.Protein>  (380) 


>  <Gold.PLP.Chemscore.CHOScore>  (380) 
0.8675

>  <Gold.PLP.Chemscore.Hbond>  (380) 
2.7640

>  <Gold.PLP.Chemscore.Internal.Correction>  (380) 
0.3222

>  <Gold.PLP.Chemscore.Metal>  (380) 
0.0000

>  <Gold.PLP.Fitness>  (380) 
61.4676

>  <Gold.PLP.PLP>  (380) 
-51.0788

>  <Gold.PLP.ligand.clash>  (380) 
0.0000

>  <Gold.PLP.ligand.torsion>  (380) 
0.4140

>  <Gold.PLP.part.buried>  (380) 
-6.8675

>  <Gold.PLP.part.hbond>  (380) 
-3.6880

>  <Gold.PLP.part.metal>  (380) 
0.0000

>  <Gold.PLP.part.nonpolar>  (380) 
-41.9088

>  <Gold.PLP.part.repulsive>  (380) 
0.5551

>  <Gold.Protein.RotatedAtoms>  (380) 


>  <Gold.Protein.RotatedTorsions>  (380) 


>  <Gold.Protein.RotatedWaterAtoms>  (380) 


>  <Gold.Version>  (380) 
5.3.0

>  <PLP.Chemscore.CHOScore>  (380) 


>  <PLP.Chemscore.Hbond>  (380) 


>  <PLP.Chemscore.Internal.Correction>  (380) 


>  <PLP.Chemscore.Metal>  (380) 


>  <PLP.Fitness>  (380) 


>  <PLP.PLP>  (380) 


>  <PLP.ligand.clash>  (380) 


>  <PLP.ligand.torsion>  (380) 


>  <PLP.part.buried>  (380) 


>  <PLP.part.hbond>  (380) 


>  <PLP.part.metal>  (380) 


>  <PLP.part.nonpolar>  (380) 


>  <PLP.part.repulsive>  (380) 


>  <Version>  (380) 


$$$$
3380|Compound_2083|Compounds_3D_F|sdf|604|dock4|1
     RDKit          3D

 20 22  0  0  0  0  0  0  0  0999 V2000
  -12.9117  -18.2681   12.5405 O   0  0  0  0  0  0  0  0  0  0  0  0
  -11.7384  -18.4742   11.8952 C   0  0  0  0  0  0  0  0  0  0  0  0
  -11.6068  -19.5415   11.1239 N   0  0  0  0  0  0  0  0  0  0  0  0
  -10.4754  -19.7786   10.4765 C   0  0  0  0  0  0  0  0  0  0  0  0
   -9.4217  -18.8945   10.6135 C   0  0  0  0  0  0  0  0  0  0  0  0
   -7.6111  -19.2220    9.6108 I   0  0  0  0  0  0  0  0  0  0  0  0
   -9.5918  -17.7783   11.4339 C   0  0  0  0  0  0  0  0  0  0  0  0
  -10.7560  -17.6020   12.0489 N   0  0  0  0  0  0  0  0  0  0  0  0
   -8.5604  -16.8627   11.6022 N   0  0  0  0  0  0  0  0  0  0  0  0
   -8.8406  -15.5792   11.9000 C   0  0  0  0  0  0  0  0  0  0  0  0
   -9.9961  -15.2213   12.0218 O   0  0  0  0  0  0  0  0  0  0  0  0
   -7.7462  -14.6076   12.0783 C   0  0  0  0  0  0  0  0  0  0  0  0
   -6.4033  -15.0395   12.0699 C   0  0  0  0  0  0  0  0  0  0  0  0
   -5.8156  -16.2430   11.9254 N   0  0  0  0  0  0  0  0  0  0  0  0
   -4.5212  -16.1132   11.9942 C   0  0  0  0  0  0  0  0  0  0  0  0
   -4.1939  -14.8082   12.1894 N   0  0  0  0  0  0  0  0  0  0  0  0
   -5.3764  -14.0955   12.2426 C   0  0  0  0  0  0  0  0  0  0  0  0
   -5.6872  -12.7557   12.4180 C   0  0  0  0  0  0  0  0  0  0  0  0
   -7.0052  -12.3432   12.4241 C   0  0  0  0  0  0  0  0  0  0  0  0
   -8.0298  -13.2550   12.2508 C   0  0  0  0  0  0  0  0  0  0  0  0
  1  2  1  0
  2  3  2  0
  2  8  1  0
  3  4  1  0
  4  5  2  0
  5  6  1  0
  5  7  1  0
  7  8  2  0
  7  9  1  0
  9 10  1  0
 10 11  2  0
 10 12  1  0
 12 13  2  0
 12 20  1  0
 13 14  1  0
 13 17  1  0
 14 15  2  0
 15 16  1  0
 16 17  1  0
 17 18  2  0
 18 19  1  0
 19 20  2  0
M  END
>  <Gold.Gold.Protein.RotatedWaterAtoms>  (381) 


>  <Gold.Id.Protein>  (381) 


>  <Gold.PLP.Chemscore.CHOScore>  (381) 
0.0000

>  <Gold.PLP.Chemscore.Hbond>  (381) 
2.0000

>  <Gold.PLP.Chemscore.Internal.Correction>  (381) 
0.3222

>  <Gold.PLP.Chemscore.Metal>  (381) 
0.0000

>  <Gold.PLP.Fitness>  (381) 
53.3293

>  <Gold.PLP.PLP>  (381) 
-47.3865

>  <Gold.PLP.ligand.clash>  (381) 
0.0309

>  <Gold.PLP.ligand.torsion>  (381) 
0.1743

>  <Gold.PLP.part.buried>  (381) 
-9.1250

>  <Gold.PLP.part.hbond>  (381) 
-3.0592

>  <Gold.PLP.part.metal>  (381) 
0.0000

>  <Gold.PLP.part.nonpolar>  (381) 
-35.6797

>  <Gold.PLP.part.repulsive>  (381) 
0.4513

>  <Gold.Protein.RotatedAtoms>  (381) 


>  <Gold.Protein.RotatedTorsions>  (381) 


>  <Gold.Protein.RotatedWaterAtoms>  (381) 


>  <Gold.Version>  (381) 
5.3.0

>  <PLP.Chemscore.CHOScore>  (381) 


>  <PLP.Chemscore.Hbond>  (381) 


>  <PLP.Chemscore.Internal.Correction>  (381) 


>  <PLP.Chemscore.Metal>  (381) 


>  <PLP.Fitness>  (381) 


>  <PLP.PLP>  (381) 


>  <PLP.ligand.clash>  (381) 


>  <PLP.ligand.torsion>  (381) 


>  <PLP.part.buried>  (381) 


>  <PLP.part.hbond>  (381) 


>  <PLP.part.metal>  (381) 


>  <PLP.part.nonpolar>  (381) 


>  <PLP.part.repulsive>  (381) 


>  <Version>  (381) 


$$$$
3381|Compound_2083|Compounds_3D_F|sdf|604|dock5|1
     RDKit          3D

 20 22  0  0  0  0  0  0  0  0999 V2000
  -13.4128  -19.7345   13.1665 O   0  0  0  0  0  0  0  0  0  0  0  0
  -12.4681  -19.4108   12.2509 C   0  0  0  0  0  0  0  0  0  0  0  0
  -12.2286  -20.2440   11.2511 N   0  0  0  0  0  0  0  0  0  0  0  0
  -11.3126  -19.9638   10.3358 C   0  0  0  0  0  0  0  0  0  0  0  0
  -10.6007  -18.7829   10.4329 C   0  0  0  0  0  0  0  0  0  0  0  0
   -9.1420  -18.2911    9.0113 I   0  0  0  0  0  0  0  0  0  0  0  0
  -10.8768  -17.9252   11.4988 C   0  0  0  0  0  0  0  0  0  0  0  0
  -11.8123  -18.2691   12.3770 N   0  0  0  0  0  0  0  0  0  0  0  0
  -10.1863  -16.7276   11.6377 N   0  0  0  0  0  0  0  0  0  0  0  0
   -8.8398  -16.7268   11.6773 C   0  0  0  0  0  0  0  0  0  0  0  0
   -8.2280  -17.7739   11.5914 O   0  0  0  0  0  0  0  0  0  0  0  0
   -8.1071  -15.4560   11.8249 C   0  0  0  0  0  0  0  0  0  0  0  0
   -6.7036  -15.4565   11.9664 C   0  0  0  0  0  0  0  0  0  0  0  0
   -5.7742  -16.4309   12.0048 N   0  0  0  0  0  0  0  0  0  0  0  0
   -4.5911  -15.9069   12.1550 C   0  0  0  0  0  0  0  0  0  0  0  0
   -4.6872  -14.5525   12.2236 N   0  0  0  0  0  0  0  0  0  0  0  0
   -6.0262  -14.2329   12.1064 C   0  0  0  0  0  0  0  0  0  0  0  0
   -6.7363  -13.0419   12.1038 C   0  0  0  0  0  0  0  0  0  0  0  0
   -8.1102  -13.0525   11.9640 C   0  0  0  0  0  0  0  0  0  0  0  0
   -8.7948  -14.2448   11.8199 C   0  0  0  0  0  0  0  0  0  0  0  0
  1  2  1  0
  2  3  2  0
  2  8  1  0
  3  4  1  0
  4  5  2  0
  5  6  1  0
  5  7  1  0
  7  8  2  0
  7  9  1  0
  9 10  1  0
 10 11  2  0
 10 12  1  0
 12 13  2  0
 12 20  1  0
 13 14  1  0
 13 17  1  0
 14 15  2  0
 15 16  1  0
 16 17  1  0
 17 18  2  0
 18 19  1  0
 19 20  2  0
M  END
>  <Gold.Gold.Protein.RotatedWaterAtoms>  (382) 


>  <Gold.Id.Protein>  (382) 


>  <Gold.PLP.Chemscore.CHOScore>  (382) 
0.0000

>  <Gold.PLP.Chemscore.Hbond>  (382) 
3.5682

>  <Gold.PLP.Chemscore.Internal.Correction>  (382) 
0.3222

>  <Gold.PLP.Chemscore.Metal>  (382) 
0.0000

>  <Gold.PLP.Fitness>  (382) 
54.4377

>  <Gold.PLP.PLP>  (382) 
-44.4343

>  <Gold.PLP.ligand.clash>  (382) 
0.0000

>  <Gold.PLP.ligand.torsion>  (382) 
0.5117

>  <Gold.PLP.part.buried>  (382) 
-7.4316

>  <Gold.PLP.part.hbond>  (382) 
-4.3876

>  <Gold.PLP.part.metal>  (382) 
0.0000

>  <Gold.PLP.part.nonpolar>  (382) 
-32.7555

>  <Gold.PLP.part.repulsive>  (382) 
0.3548

>  <Gold.Protein.RotatedAtoms>  (382) 


>  <Gold.Protein.RotatedTorsions>  (382) 


>  <Gold.Protein.RotatedWaterAtoms>  (382) 


>  <Gold.Version>  (382) 
5.3.0

>  <PLP.Chemscore.CHOScore>  (382) 


>  <PLP.Chemscore.Hbond>  (382) 


>  <PLP.Chemscore.Internal.Correction>  (382) 


>  <PLP.Chemscore.Metal>  (382) 


>  <PLP.Fitness>  (382) 


>  <PLP.PLP>  (382) 


>  <PLP.ligand.clash>  (382) 


>  <PLP.ligand.torsion>  (382) 


>  <PLP.part.buried>  (382) 


>  <PLP.part.hbond>  (382) 


>  <PLP.part.metal>  (382) 


>  <PLP.part.nonpolar>  (382) 


>  <PLP.part.repulsive>  (382) 


>  <Version>  (382) 


$$$$
3382|Compound_2083|Compounds_3D_F|sdf|604|dock6|1
     RDKit          3D

 20 22  0  0  0  0  0  0  0  0999 V2000
  -11.7879  -18.0550   12.3498 O   0  0  0  0  0  0  0  0  0  0  0  0
  -10.5222  -17.8760   11.9007 C   0  0  0  0  0  0  0  0  0  0  0  0
   -9.9019  -18.8824   11.3062 N   0  0  0  0  0  0  0  0  0  0  0  0
   -8.6639  -18.7475   10.8538 C   0  0  0  0  0  0  0  0  0  0  0  0
   -8.0173  -17.5356   11.0085 C   0  0  0  0  0  0  0  0  0  0  0  0
   -6.0599  -17.2687   10.3101 I   0  0  0  0  0  0  0  0  0  0  0  0
   -8.6986  -16.4936   11.6396 C   0  0  0  0  0  0  0  0  0  0  0  0
   -9.9404  -16.6995   12.0641 N   0  0  0  0  0  0  0  0  0  0  0  0
   -8.0889  -15.2580   11.8179 N   0  0  0  0  0  0  0  0  0  0  0  0
   -8.7743  -14.1258   11.5669 C   0  0  0  0  0  0  0  0  0  0  0  0
   -9.9268  -14.1846   11.1845 O   0  0  0  0  0  0  0  0  0  0  0  0
   -8.1272  -12.8147   11.7559 C   0  0  0  0  0  0  0  0  0  0  0  0
   -6.8180  -12.7360   12.2753 C   0  0  0  0  0  0  0  0  0  0  0  0
   -5.9235  -13.6570   12.6831 N   0  0  0  0  0  0  0  0  0  0  0  0
   -4.8351  -13.0666   13.0874 C   0  0  0  0  0  0  0  0  0  0  0  0
   -4.9633  -11.7188   12.9643 N   0  0  0  0  0  0  0  0  0  0  0  0
   -6.2213  -11.4751   12.4476 C   0  0  0  0  0  0  0  0  0  0  0  0
   -6.9177  -10.3252   12.1079 C   0  0  0  0  0  0  0  0  0  0  0  0
   -8.1988  -10.4133   11.5997 C   0  0  0  0  0  0  0  0  0  0  0  0
   -8.8017  -11.6440   11.4177 C   0  0  0  0  0  0  0  0  0  0  0  0
  1  2  1  0
  2  3  2  0
  2  8  1  0
  3  4  1  0
  4  5  2  0
  5  6  1  0
  5  7  1  0
  7  8  2  0
  7  9  1  0
  9 10  1  0
 10 11  2  0
 10 12  1  0
 12 13  2  0
 12 20  1  0
 13 14  1  0
 13 17  1  0
 14 15  2  0
 15 16  1  0
 16 17  1  0
 17 18  2  0
 18 19  1  0
 19 20  2  0
M  END
>  <Gold.Gold.Protein.RotatedWaterAtoms>  (383) 


>  <Gold.Id.Protein>  (383) 


>  <Gold.PLP.Chemscore.CHOScore>  (383) 
0.9796

>  <Gold.PLP.Chemscore.Hbond>  (383) 
2.6460

>  <Gold.PLP.Chemscore.Internal.Correction>  (383) 
0.3222

>  <Gold.PLP.Chemscore.Metal>  (383) 
0.0000

>  <Gold.PLP.Fitness>  (383) 
61.3642

>  <Gold.PLP.PLP>  (383) 
-50.8983

>  <Gold.PLP.ligand.clash>  (383) 
0.0000

>  <Gold.PLP.ligand.torsion>  (383) 
0.3665

>  <Gold.PLP.part.buried>  (383) 
-6.8635

>  <Gold.PLP.part.hbond>  (383) 
-3.3953

>  <Gold.PLP.part.metal>  (383) 
0.0000

>  <Gold.PLP.part.nonpolar>  (383) 
-42.4907

>  <Gold.PLP.part.repulsive>  (383) 
0.5801

>  <Gold.Protein.RotatedAtoms>  (383) 


>  <Gold.Protein.RotatedTorsions>  (383) 


>  <Gold.Protein.RotatedWaterAtoms>  (383) 


>  <Gold.Version>  (383) 
5.3.0

>  <PLP.Chemscore.CHOScore>  (383) 


>  <PLP.Chemscore.Hbond>  (383) 


>  <PLP.Chemscore.Internal.Correction>  (383) 


>  <PLP.Chemscore.Metal>  (383) 


>  <PLP.Fitness>  (383) 


>  <PLP.PLP>  (383) 


>  <PLP.ligand.clash>  (383) 


>  <PLP.ligand.torsion>  (383) 


>  <PLP.part.buried>  (383) 


>  <PLP.part.hbond>  (383) 


>  <PLP.part.metal>  (383) 


>  <PLP.part.nonpolar>  (383) 


>  <PLP.part.repulsive>  (383) 


>  <Version>  (383) 


$$$$
3383|Compound_2083|Compounds_3D_F|sdf|604|dock7|1
     RDKit          3D

 20 22  0  0  0  0  0  0  0  0999 V2000
  -11.7086  -18.1409   12.2709 O   0  0  0  0  0  0  0  0  0  0  0  0
  -10.4475  -17.9863   11.8004 C   0  0  0  0  0  0  0  0  0  0  0  0
   -9.8464  -19.0130   11.2208 N   0  0  0  0  0  0  0  0  0  0  0  0
   -8.6136  -18.9022   10.7484 C   0  0  0  0  0  0  0  0  0  0  0  0
   -7.9519  -17.6943   10.8660 C   0  0  0  0  0  0  0  0  0  0  0  0
   -6.0017  -17.4652   10.1347 I   0  0  0  0  0  0  0  0  0  0  0  0
   -8.6130  -16.6305   11.4821 C   0  0  0  0  0  0  0  0  0  0  0  0
   -9.8509  -16.8128   11.9284 N   0  0  0  0  0  0  0  0  0  0  0  0
   -7.9876  -15.3980   11.6232 N   0  0  0  0  0  0  0  0  0  0  0  0
   -8.7243  -14.2721   11.6891 C   0  0  0  0  0  0  0  0  0  0  0  0
   -9.9368  -14.3339   11.6252 O   0  0  0  0  0  0  0  0  0  0  0  0
   -8.0607  -12.9642   11.8386 C   0  0  0  0  0  0  0  0  0  0  0  0
   -6.7534  -12.8858   12.3628 C   0  0  0  0  0  0  0  0  0  0  0  0
   -5.8737  -13.8047   12.8060 N   0  0  0  0  0  0  0  0  0  0  0  0
   -4.7796  -13.2157   13.1971 C   0  0  0  0  0  0  0  0  0  0  0  0
   -4.8890  -11.8712   13.0289 N   0  0  0  0  0  0  0  0  0  0  0  0
   -6.1407  -11.6279   12.4970 C   0  0  0  0  0  0  0  0  0  0  0  0
   -6.8197  -10.4807   12.1156 C   0  0  0  0  0  0  0  0  0  0  0  0
   -8.0991  -10.5685   11.6030 C   0  0  0  0  0  0  0  0  0  0  0  0
   -8.7175  -11.7965   11.4581 C   0  0  0  0  0  0  0  0  0  0  0  0
  1  2  1  0
  2  3  2  0
  2  8  1  0
  3  4  1  0
  4  5  2  0
  5  6  1  0
  5  7  1  0
  7  8  2  0
  7  9  1  0
  9 10  1  0
 10 11  2  0
 10 12  1  0
 12 13  2  0
 12 20  1  0
 13 14  1  0
 13 17  1  0
 14 15  2  0
 15 16  1  0
 16 17  1  0
 17 18  2  0
 18 19  1  0
 19 20  2  0
M  END
>  <Gold.Gold.Protein.RotatedWaterAtoms>  (384) 


>  <Gold.Id.Protein>  (384) 


>  <Gold.PLP.Chemscore.CHOScore>  (384) 
0.8837

>  <Gold.PLP.Chemscore.Hbond>  (384) 
2.7520

>  <Gold.PLP.Chemscore.Internal.Correction>  (384) 
0.3222

>  <Gold.PLP.Chemscore.Metal>  (384) 
0.0000

>  <Gold.PLP.Fitness>  (384) 
61.4480

>  <Gold.PLP.PLP>  (384) 
-50.9936

>  <Gold.PLP.ligand.clash>  (384) 
0.0458

>  <Gold.PLP.ligand.torsion>  (384) 
0.3646

>  <Gold.PLP.part.buried>  (384) 
-7.2206

>  <Gold.PLP.part.hbond>  (384) 
-3.7771

>  <Gold.PLP.part.metal>  (384) 
0.0000

>  <Gold.PLP.part.nonpolar>  (384) 
-42.2524

>  <Gold.PLP.part.repulsive>  (384) 
0.5624

>  <Gold.Protein.RotatedAtoms>  (384) 


>  <Gold.Protein.RotatedTorsions>  (384) 


>  <Gold.Protein.RotatedWaterAtoms>  (384) 


>  <Gold.Version>  (384) 
5.3.0

>  <PLP.Chemscore.CHOScore>  (384) 


>  <PLP.Chemscore.Hbond>  (384) 


>  <PLP.Chemscore.Internal.Correction>  (384) 


>  <PLP.Chemscore.Metal>  (384) 


>  <PLP.Fitness>  (384) 


>  <PLP.PLP>  (384) 


>  <PLP.ligand.clash>  (384) 


>  <PLP.ligand.torsion>  (384) 


>  <PLP.part.buried>  (384) 


>  <PLP.part.hbond>  (384) 


>  <PLP.part.metal>  (384) 


>  <PLP.part.nonpolar>  (384) 


>  <PLP.part.repulsive>  (384) 


>  <Version>  (384) 


$$$$
3384|Compound_2084|Compounds_3D_F|sdf|605|dock1|1
     RDKit          3D

 22 24  0  0  0  0  0  0  0  0999 V2000
   -8.5663  -17.0555   10.9602 N   0  0  0  0  0  0  0  0  0  0  0  0
   -8.8798  -15.9487   11.6630 C   0  0  0  0  0  0  0  0  0  0  0  0
  -10.0169  -15.7834   12.0614 O   0  0  0  0  0  0  0  0  0  0  0  0
   -7.8439  -14.9396   11.9481 C   0  0  0  0  0  0  0  0  0  0  0  0
   -6.4825  -15.3067   11.9736 C   0  0  0  0  0  0  0  0  0  0  0  0
   -5.8300  -16.4705   11.7817 N   0  0  0  0  0  0  0  0  0  0  0  0
   -4.5474  -16.2840   11.9149 C   0  0  0  0  0  0  0  0  0  0  0  0
   -4.2941  -14.9811   12.2035 N   0  0  0  0  0  0  0  0  0  0  0  0
   -5.5109  -14.3290   12.2472 C   0  0  0  0  0  0  0  0  0  0  0  0
   -5.8941  -13.0183   12.4901 C   0  0  0  0  0  0  0  0  0  0  0  0
   -7.2307  -12.6690   12.4628 C   0  0  0  0  0  0  0  0  0  0  0  0
   -8.2015  -13.6149   12.1894 C   0  0  0  0  0  0  0  0  0  0  0  0
   -9.5404  -18.0018   10.6876 C   0  0  0  0  0  0  0  0  0  0  0  0
  -10.7374  -17.7473   10.2296 N   0  0  0  0  0  0  0  0  0  0  0  0
  -11.4034  -18.9274   10.0902 C   0  0  0  0  0  0  0  0  0  0  0  0
  -10.5568  -19.9166   10.4859 C   0  0  0  0  0  0  0  0  0  0  0  0
   -9.4036  -19.3280   10.8485 O   0  0  0  0  0  0  0  0  0  0  0  0
  -12.7825  -19.1004    9.6026 C   0  0  0  0  0  0  0  0  0  0  0  0
  -13.5585  -18.1656    9.6312 O   0  0  0  0  0  0  0  0  0  0  0  0
  -13.1828  -20.2945    9.1235 O   0  0  0  0  0  0  0  0  0  0  0  0
  -14.5489  -20.3865    8.6398 C   0  0  0  0  0  0  0  0  0  0  0  0
  -14.7251  -21.6855    7.8518 C   0  0  0  0  0  0  0  0  0  0  0  0
  1  2  1  0
  1 13  1  0
  2  3  2  0
  2  4  1  0
  4  5  2  0
  4 12  1  0
  5  6  1  0
  5  9  1  0
  6  7  2  0
  7  8  1  0
  8  9  1  0
  9 10  2  0
 10 11  1  0
 11 12  2  0
 13 14  2  0
 13 17  1  0
 14 15  1  0
 15 16  2  0
 15 18  1  0
 16 17  1  0
 18 19  2  0
 18 20  1  0
 20 21  1  0
 21 22  1  0
M  END
>  <Gold.Gold.Protein.RotatedWaterAtoms>  (385) 


>  <Gold.Id.Protein>  (385) 


>  <Gold.PLP.Chemscore.CHOScore>  (385) 
0.0000

>  <Gold.PLP.Chemscore.Hbond>  (385) 
2.0000

>  <Gold.PLP.Chemscore.Internal.Correction>  (385) 
0.0684

>  <Gold.PLP.Chemscore.Metal>  (385) 
0.0000

>  <Gold.PLP.Fitness>  (385) 
58.2541

>  <Gold.PLP.PLP>  (385) 
-53.9692

>  <Gold.PLP.ligand.clash>  (385) 
0.0000

>  <Gold.PLP.ligand.torsion>  (385) 
0.8917

>  <Gold.PLP.part.buried>  (385) 
-9.9607

>  <Gold.PLP.part.hbond>  (385) 
-2.8622

>  <Gold.PLP.part.metal>  (385) 
0.0000

>  <Gold.PLP.part.nonpolar>  (385) 
-40.7185

>  <Gold.PLP.part.repulsive>  (385) 
0.3925

>  <Gold.Protein.RotatedAtoms>  (385) 


>  <Gold.Protein.RotatedTorsions>  (385) 


>  <Gold.Protein.RotatedWaterAtoms>  (385) 


>  <Gold.Version>  (385) 
5.3.0

>  <PLP.Chemscore.CHOScore>  (385) 


>  <PLP.Chemscore.Hbond>  (385) 


>  <PLP.Chemscore.Internal.Correction>  (385) 


>  <PLP.Chemscore.Metal>  (385) 


>  <PLP.Fitness>  (385) 


>  <PLP.PLP>  (385) 


>  <PLP.ligand.clash>  (385) 


>  <PLP.ligand.torsion>  (385) 


>  <PLP.part.buried>  (385) 


>  <PLP.part.hbond>  (385) 


>  <PLP.part.metal>  (385) 


>  <PLP.part.nonpolar>  (385) 


>  <PLP.part.repulsive>  (385) 


>  <Version>  (385) 


$$$$
3385|Compound_2084|Compounds_3D_F|sdf|605|dock2|1
     RDKit          3D

 22 24  0  0  0  0  0  0  0  0999 V2000
   -8.6624  -16.9097   11.1394 N   0  0  0  0  0  0  0  0  0  0  0  0
   -8.9200  -15.7708   11.8130 C   0  0  0  0  0  0  0  0  0  0  0  0
  -10.0415  -15.5510   12.2289 O   0  0  0  0  0  0  0  0  0  0  0  0
   -7.8420  -14.7927   12.0450 C   0  0  0  0  0  0  0  0  0  0  0  0
   -6.4939  -15.2067   12.0393 C   0  0  0  0  0  0  0  0  0  0  0  0
   -5.8878  -16.3965   11.8551 N   0  0  0  0  0  0  0  0  0  0  0  0
   -4.5961  -16.2522   11.9467 C   0  0  0  0  0  0  0  0  0  0  0  0
   -4.2897  -14.9531   12.1982 N   0  0  0  0  0  0  0  0  0  0  0  0
   -5.4815  -14.2579   12.2624 C   0  0  0  0  0  0  0  0  0  0  0  0
   -5.8119  -12.9296   12.4865 C   0  0  0  0  0  0  0  0  0  0  0  0
   -7.1360  -12.5343   12.4900 C   0  0  0  0  0  0  0  0  0  0  0  0
   -8.1465  -13.4513   12.2664 C   0  0  0  0  0  0  0  0  0  0  0  0
   -9.6761  -17.8270   10.9167 C   0  0  0  0  0  0  0  0  0  0  0  0
  -10.7601  -17.6050   10.2217 N   0  0  0  0  0  0  0  0  0  0  0  0
  -11.5142  -18.7395   10.2285 C   0  0  0  0  0  0  0  0  0  0  0  0
  -10.8400  -19.6664   10.9622 C   0  0  0  0  0  0  0  0  0  0  0  0
   -9.6996  -19.0880   11.3778 O   0  0  0  0  0  0  0  0  0  0  0  0
  -12.8162  -18.9276    9.5661 C   0  0  0  0  0  0  0  0  0  0  0  0
  -13.4538  -17.9619    9.1947 O   0  0  0  0  0  0  0  0  0  0  0  0
  -13.2992  -20.1701    9.3705 O   0  0  0  0  0  0  0  0  0  0  0  0
  -14.5161  -20.2888    8.5871 C   0  0  0  0  0  0  0  0  0  0  0  0
  -14.8014  -21.7652    8.3074 C   0  0  0  0  0  0  0  0  0  0  0  0
  1  2  1  0
  1 13  1  0
  2  3  2  0
  2  4  1  0
  4  5  2  0
  4 12  1  0
  5  6  1  0
  5  9  1  0
  6  7  2  0
  7  8  1  0
  8  9  1  0
  9 10  2  0
 10 11  1  0
 11 12  2  0
 13 14  2  0
 13 17  1  0
 14 15  1  0
 15 16  2  0
 15 18  1  0
 16 17  1  0
 18 19  2  0
 18 20  1  0
 20 21  1  0
 21 22  1  0
M  END
>  <Gold.Gold.Protein.RotatedWaterAtoms>  (386) 


>  <Gold.Id.Protein>  (386) 


>  <Gold.PLP.Chemscore.CHOScore>  (386) 
0.0000

>  <Gold.PLP.Chemscore.Hbond>  (386) 
2.0000

>  <Gold.PLP.Chemscore.Internal.Correction>  (386) 
0.0473

>  <Gold.PLP.Chemscore.Metal>  (386) 
0.0000

>  <Gold.PLP.Fitness>  (386) 
58.5430

>  <Gold.PLP.PLP>  (386) 
-54.5163

>  <Gold.PLP.ligand.clash>  (386) 
0.0000

>  <Gold.PLP.ligand.torsion>  (386) 
1.0103

>  <Gold.PLP.part.buried>  (386) 
-9.8611

>  <Gold.PLP.part.hbond>  (386) 
-3.0241

>  <Gold.PLP.part.metal>  (386) 
0.0000

>  <Gold.PLP.part.nonpolar>  (386) 
-41.0919

>  <Gold.PLP.part.repulsive>  (386) 
0.4202

>  <Gold.Protein.RotatedAtoms>  (386) 


>  <Gold.Protein.RotatedTorsions>  (386) 


>  <Gold.Protein.RotatedWaterAtoms>  (386) 


>  <Gold.Version>  (386) 
5.3.0

>  <PLP.Chemscore.CHOScore>  (386) 


>  <PLP.Chemscore.Hbond>  (386) 


>  <PLP.Chemscore.Internal.Correction>  (386) 


>  <PLP.Chemscore.Metal>  (386) 


>  <PLP.Fitness>  (386) 


>  <PLP.PLP>  (386) 


>  <PLP.ligand.clash>  (386) 


>  <PLP.ligand.torsion>  (386) 


>  <PLP.part.buried>  (386) 


>  <PLP.part.hbond>  (386) 


>  <PLP.part.metal>  (386) 


>  <PLP.part.nonpolar>  (386) 


>  <PLP.part.repulsive>  (386) 


>  <Version>  (386) 


$$$$
3386|Compound_2084|Compounds_3D_F|sdf|605|dock3|1
     RDKit          3D

 22 24  0  0  0  0  0  0  0  0999 V2000
   -8.7026  -17.1190   11.3765 N   0  0  0  0  0  0  0  0  0  0  0  0
   -8.9357  -15.8973   11.8965 C   0  0  0  0  0  0  0  0  0  0  0  0
  -10.0684  -15.5694   12.1938 O   0  0  0  0  0  0  0  0  0  0  0  0
   -7.8174  -14.9600   12.1045 C   0  0  0  0  0  0  0  0  0  0  0  0
   -6.4865  -15.4257   12.0818 C   0  0  0  0  0  0  0  0  0  0  0  0
   -5.9296  -16.6395   11.8981 N   0  0  0  0  0  0  0  0  0  0  0  0
   -4.6321  -16.5445   11.9692 C   0  0  0  0  0  0  0  0  0  0  0  0
   -4.2720  -15.2564   12.2056 N   0  0  0  0  0  0  0  0  0  0  0  0
   -5.4350  -14.5152   12.2821 C   0  0  0  0  0  0  0  0  0  0  0  0
   -5.7106  -13.1735   12.5005 C   0  0  0  0  0  0  0  0  0  0  0  0
   -7.0182  -12.7274   12.5207 C   0  0  0  0  0  0  0  0  0  0  0  0
   -8.0666  -13.6062   12.3197 C   0  0  0  0  0  0  0  0  0  0  0  0
   -9.7537  -17.9986   11.1761 C   0  0  0  0  0  0  0  0  0  0  0  0
  -10.8268  -17.7498   10.4735 N   0  0  0  0  0  0  0  0  0  0  0  0
  -11.6278  -18.8511   10.5088 C   0  0  0  0  0  0  0  0  0  0  0  0
  -10.9937  -19.7858   11.2679 C   0  0  0  0  0  0  0  0  0  0  0  0
   -9.8304  -19.2449   11.6703 O   0  0  0  0  0  0  0  0  0  0  0  0
  -12.9361  -19.0019    9.8491 C   0  0  0  0  0  0  0  0  0  0  0  0
  -13.5526  -18.0179    9.4909 O   0  0  0  0  0  0  0  0  0  0  0  0
  -13.4481  -20.2308    9.6415 O   0  0  0  0  0  0  0  0  0  0  0  0
  -14.6936  -20.3094    8.8990 C   0  0  0  0  0  0  0  0  0  0  0  0
  -14.6816  -21.5556    8.0122 C   0  0  0  0  0  0  0  0  0  0  0  0
  1  2  1  0
  1 13  1  0
  2  3  2  0
  2  4  1  0
  4  5  2  0
  4 12  1  0
  5  6  1  0
  5  9  1  0
  6  7  2  0
  7  8  1  0
  8  9  1  0
  9 10  2  0
 10 11  1  0
 11 12  2  0
 13 14  2  0
 13 17  1  0
 14 15  1  0
 15 16  2  0
 15 18  1  0
 16 17  1  0
 18 19  2  0
 18 20  1  0
 20 21  1  0
 21 22  1  0
M  END
>  <Gold.Gold.Protein.RotatedWaterAtoms>  (387) 


>  <Gold.Id.Protein>  (387) 


>  <Gold.PLP.Chemscore.CHOScore>  (387) 
0.0000

>  <Gold.PLP.Chemscore.Hbond>  (387) 
2.0000

>  <Gold.PLP.Chemscore.Internal.Correction>  (387) 
0.0473

>  <Gold.PLP.Chemscore.Metal>  (387) 
0.0000

>  <Gold.PLP.Fitness>  (387) 
58.9531

>  <Gold.PLP.PLP>  (387) 
-54.9957

>  <Gold.PLP.ligand.clash>  (387) 
0.0000

>  <Gold.PLP.ligand.torsion>  (387) 
1.0449

>  <Gold.PLP.part.buried>  (387) 
-11.5117

>  <Gold.PLP.part.hbond>  (387) 
-2.7256

>  <Gold.PLP.part.metal>  (387) 
0.0000

>  <Gold.PLP.part.nonpolar>  (387) 
-41.4863

>  <Gold.PLP.part.repulsive>  (387) 
0.3963

>  <Gold.Protein.RotatedAtoms>  (387) 


>  <Gold.Protein.RotatedTorsions>  (387) 


>  <Gold.Protein.RotatedWaterAtoms>  (387) 


>  <Gold.Version>  (387) 
5.3.0

>  <PLP.Chemscore.CHOScore>  (387) 


>  <PLP.Chemscore.Hbond>  (387) 


>  <PLP.Chemscore.Internal.Correction>  (387) 


>  <PLP.Chemscore.Metal>  (387) 


>  <PLP.Fitness>  (387) 


>  <PLP.PLP>  (387) 


>  <PLP.ligand.clash>  (387) 


>  <PLP.ligand.torsion>  (387) 


>  <PLP.part.buried>  (387) 


>  <PLP.part.hbond>  (387) 


>  <PLP.part.metal>  (387) 


>  <PLP.part.nonpolar>  (387) 


>  <PLP.part.repulsive>  (387) 


>  <Version>  (387) 


$$$$
3387|Compound_2086|Compounds_3D_F|sdf|606|dock1|1
     RDKit          3D

 29 32  0  0  0  0  0  0  0  0999 V2000
   -9.9123  -20.9179    8.5636 O   0  0  0  0  0  0  0  0  0  0  0  0
  -10.3382  -19.8366    9.2556 C   0  0  0  0  0  0  0  0  0  0  0  0
  -11.6790  -19.7478    9.7104 C   0  0  0  0  0  0  0  0  0  0  0  0
  -12.5656  -20.7136    9.4783 N   0  0  0  0  0  0  0  0  0  0  0  0
  -13.7968  -20.5847    9.9209 C   0  0  0  0  0  0  0  0  0  0  0  0
  -14.1826  -19.4470   10.6301 C   0  0  0  0  0  0  0  0  0  0  0  0
  -13.3229  -18.4804   10.8711 N   0  0  0  0  0  0  0  0  0  0  0  0
  -12.0670  -18.5904   10.4303 C   0  0  0  0  0  0  0  0  0  0  0  0
  -11.1565  -17.6338   10.6504 N   0  0  0  0  0  0  0  0  0  0  0  0
   -9.9229  -17.7688   10.2030 C   0  0  0  0  0  0  0  0  0  0  0  0
   -9.5144  -18.8398    9.5286 N   0  0  0  0  0  0  0  0  0  0  0  0
   -9.0113  -16.7541   10.4533 N   0  0  0  0  0  0  0  0  0  0  0  0
   -9.1068  -16.0271   11.5836 C   0  0  0  0  0  0  0  0  0  0  0  0
   -9.9915  -16.2602   12.3840 O   0  0  0  0  0  0  0  0  0  0  0  0
   -8.1375  -14.9490   11.8503 C   0  0  0  0  0  0  0  0  0  0  0  0
   -6.7587  -15.2357   11.9324 C   0  0  0  0  0  0  0  0  0  0  0  0
   -6.0373  -16.3685   11.8152 N   0  0  0  0  0  0  0  0  0  0  0  0
   -4.7715  -16.1031   11.9766 C   0  0  0  0  0  0  0  0  0  0  0  0
   -4.6000  -14.7761   12.2096 N   0  0  0  0  0  0  0  0  0  0  0  0
   -5.8530  -14.1936   12.1871 C   0  0  0  0  0  0  0  0  0  0  0  0
   -6.3154  -12.8967   12.3558 C   0  0  0  0  0  0  0  0  0  0  0  0
   -7.6682  -12.6256   12.2725 C   0  0  0  0  0  0  0  0  0  0  0  0
   -8.5747  -13.6375   12.0173 C   0  0  0  0  0  0  0  0  0  0  0  0
  -14.8014  -21.6767    9.6593 C   0  0  0  0  0  0  0  0  0  0  0  0
  -14.4758  -22.8233   10.4480 O   0  0  0  0  0  0  0  0  0  0  0  0
  -14.7728  -22.0528    8.1771 C   0  0  0  0  0  0  0  0  0  0  0  0
  -15.1629  -20.9242    7.3916 O   0  0  0  0  0  0  0  0  0  0  0  0
  -15.7407  -23.2097    7.9250 C   0  0  0  0  0  0  0  0  0  0  0  0
  -16.8867  -22.7269    7.2195 O   0  0  0  0  0  0  0  0  0  0  0  0
  1  2  1  0
  2  3  2  0
  2 11  1  0
  3  4  1  0
  3  8  1  0
  4  5  2  0
  5  6  1  0
  5 24  1  0
  6  7  2  0
  7  8  1  0
  8  9  2  0
  9 10  1  0
 10 11  2  0
 10 12  1  0
 12 13  1  0
 13 14  2  0
 13 15  1  0
 15 16  2  0
 15 23  1  0
 16 17  1  0
 16 20  1  0
 17 18  2  0
 18 19  1  0
 19 20  1  0
 20 21  2  0
 21 22  1  0
 22 23  2  0
 24 25  1  0
 24 26  1  0
 26 27  1  0
 26 28  1  0
 28 29  1  0
M  END
>  <Gold.Gold.Protein.RotatedWaterAtoms>  (388) 


>  <Gold.Id.Protein>  (388) 


>  <Gold.PLP.Chemscore.CHOScore>  (388) 
0.6088

>  <Gold.PLP.Chemscore.Hbond>  (388) 
4.4500

>  <Gold.PLP.Chemscore.Internal.Correction>  (388) 
0.7029

>  <Gold.PLP.Chemscore.Metal>  (388) 
0.0000

>  <Gold.PLP.Fitness>  (388) 
73.5205

>  <Gold.PLP.PLP>  (388) 
-62.0757

>  <Gold.PLP.ligand.clash>  (388) 
0.0062

>  <Gold.PLP.ligand.torsion>  (388) 
2.2142

>  <Gold.PLP.part.buried>  (388) 
-10.6633

>  <Gold.PLP.part.hbond>  (388) 
-8.7184

>  <Gold.PLP.part.metal>  (388) 
0.0000

>  <Gold.PLP.part.nonpolar>  (388) 
-43.9659

>  <Gold.PLP.part.repulsive>  (388) 
0.3164

>  <Gold.Protein.RotatedAtoms>  (388) 


>  <Gold.Protein.RotatedTorsions>  (388) 


>  <Gold.Protein.RotatedWaterAtoms>  (388) 


>  <Gold.Version>  (388) 
5.3.0

>  <PLP.Chemscore.CHOScore>  (388) 


>  <PLP.Chemscore.Hbond>  (388) 


>  <PLP.Chemscore.Internal.Correction>  (388) 


>  <PLP.Chemscore.Metal>  (388) 


>  <PLP.Fitness>  (388) 


>  <PLP.PLP>  (388) 


>  <PLP.ligand.clash>  (388) 


>  <PLP.ligand.torsion>  (388) 


>  <PLP.part.buried>  (388) 


>  <PLP.part.hbond>  (388) 


>  <PLP.part.metal>  (388) 


>  <PLP.part.nonpolar>  (388) 


>  <PLP.part.repulsive>  (388) 


>  <Version>  (388) 


$$$$
3388|Compound_2086|Compounds_3D_F|sdf|606|dock2|1
     RDKit          3D

 29 32  0  0  0  0  0  0  0  0999 V2000
   -9.7799  -21.2441   10.9936 O   0  0  0  0  0  0  0  0  0  0  0  0
  -10.1277  -19.9637   10.7306 C   0  0  0  0  0  0  0  0  0  0  0  0
  -11.4320  -19.6453   10.2726 C   0  0  0  0  0  0  0  0  0  0  0  0
  -12.3592  -20.5821   10.0840 N   0  0  0  0  0  0  0  0  0  0  0  0
  -13.5541  -20.2365    9.6584 C   0  0  0  0  0  0  0  0  0  0  0  0
  -13.8592  -18.8994    9.4026 C   0  0  0  0  0  0  0  0  0  0  0  0
  -12.9584  -17.9573    9.5823 N   0  0  0  0  0  0  0  0  0  0  0  0
  -11.7380  -18.2859   10.0137 C   0  0  0  0  0  0  0  0  0  0  0  0
  -10.7880  -17.3634   10.2113 N   0  0  0  0  0  0  0  0  0  0  0  0
   -9.5909  -17.7167   10.6377 C   0  0  0  0  0  0  0  0  0  0  0  0
   -9.2625  -18.9788   10.8986 N   0  0  0  0  0  0  0  0  0  0  0  0
   -8.6363  -16.7291   10.8295 N   0  0  0  0  0  0  0  0  0  0  0  0
   -8.8949  -15.6935   11.6516 C   0  0  0  0  0  0  0  0  0  0  0  0
   -9.9645  -15.6246   12.2253 O   0  0  0  0  0  0  0  0  0  0  0  0
   -7.8803  -14.6439   11.8562 C   0  0  0  0  0  0  0  0  0  0  0  0
   -6.5203  -14.9880   12.0048 C   0  0  0  0  0  0  0  0  0  0  0  0
   -5.8538  -16.1598   12.0060 N   0  0  0  0  0  0  0  0  0  0  0  0
   -4.5811  -15.9422   12.1835 C   0  0  0  0  0  0  0  0  0  0  0  0
   -4.3494  -14.6098   12.3088 N   0  0  0  0  0  0  0  0  0  0  0  0
   -5.5706  -13.9722   12.1985 C   0  0  0  0  0  0  0  0  0  0  0  0
   -5.9718  -12.6451   12.2428 C   0  0  0  0  0  0  0  0  0  0  0  0
   -7.3065  -12.3179   12.0952 C   0  0  0  0  0  0  0  0  0  0  0  0
   -8.2555  -13.3036   11.8983 C   0  0  0  0  0  0  0  0  0  0  0  0
  -14.6046  -21.2952    9.4446 C   0  0  0  0  0  0  0  0  0  0  0  0
  -14.4683  -22.3105   10.4413 O   0  0  0  0  0  0  0  0  0  0  0  0
  -14.4296  -21.9157    8.0577 C   0  0  0  0  0  0  0  0  0  0  0  0
  -14.5536  -20.8982    7.0616 O   0  0  0  0  0  0  0  0  0  0  0  0
  -15.5039  -22.9814    7.8358 C   0  0  0  0  0  0  0  0  0  0  0  0
  -16.5911  -22.4157    7.0995 O   0  0  0  0  0  0  0  0  0  0  0  0
  1  2  1  0
  2  3  2  0
  2 11  1  0
  3  4  1  0
  3  8  1  0
  4  5  2  0
  5  6  1  0
  5 24  1  0
  6  7  2  0
  7  8  1  0
  8  9  2  0
  9 10  1  0
 10 11  2  0
 10 12  1  0
 12 13  1  0
 13 14  2  0
 13 15  1  0
 15 16  2  0
 15 23  1  0
 16 17  1  0
 16 20  1  0
 17 18  2  0
 18 19  1  0
 19 20  1  0
 20 21  2  0
 21 22  1  0
 22 23  2  0
 24 25  1  0
 24 26  1  0
 26 27  1  0
 26 28  1  0
 28 29  1  0
M  END
>  <Gold.Gold.Protein.RotatedWaterAtoms>  (389) 


>  <Gold.Id.Protein>  (389) 


>  <Gold.PLP.Chemscore.CHOScore>  (389) 
0.0000

>  <Gold.PLP.Chemscore.Hbond>  (389) 
4.0640

>  <Gold.PLP.Chemscore.Internal.Correction>  (389) 
0.6030

>  <Gold.PLP.Chemscore.Metal>  (389) 
0.0000

>  <Gold.PLP.Fitness>  (389) 
74.7283

>  <Gold.PLP.PLP>  (389) 
-66.6885

>  <Gold.PLP.ligand.clash>  (389) 
0.0000

>  <Gold.PLP.ligand.torsion>  (389) 
2.3776

>  <Gold.PLP.part.buried>  (389) 
-10.2676

>  <Gold.PLP.part.hbond>  (389) 
-7.5208

>  <Gold.PLP.part.metal>  (389) 
0.0000

>  <Gold.PLP.part.nonpolar>  (389) 
-49.1858

>  <Gold.PLP.part.repulsive>  (389) 
0.3617

>  <Gold.Protein.RotatedAtoms>  (389) 


>  <Gold.Protein.RotatedTorsions>  (389) 


>  <Gold.Protein.RotatedWaterAtoms>  (389) 


>  <Gold.Version>  (389) 
5.3.0

>  <PLP.Chemscore.CHOScore>  (389) 


>  <PLP.Chemscore.Hbond>  (389) 


>  <PLP.Chemscore.Internal.Correction>  (389) 


>  <PLP.Chemscore.Metal>  (389) 


>  <PLP.Fitness>  (389) 


>  <PLP.PLP>  (389) 


>  <PLP.ligand.clash>  (389) 


>  <PLP.ligand.torsion>  (389) 


>  <PLP.part.buried>  (389) 


>  <PLP.part.hbond>  (389) 


>  <PLP.part.metal>  (389) 


>  <PLP.part.nonpolar>  (389) 


>  <PLP.part.repulsive>  (389) 


>  <Version>  (389) 


$$$$
3389|Compound_2086|Compounds_3D_F|sdf|606|dock3|1
     RDKit          3D

 29 32  0  0  0  0  0  0  0  0999 V2000
   -9.8160  -21.2151    8.8252 O   0  0  0  0  0  0  0  0  0  0  0  0
  -10.2088  -20.0992    9.4810 C   0  0  0  0  0  0  0  0  0  0  0  0
  -11.5569  -19.9348    9.8908 C   0  0  0  0  0  0  0  0  0  0  0  0
  -12.4828  -20.8609    9.6504 N   0  0  0  0  0  0  0  0  0  0  0  0
  -13.7192  -20.6621   10.0507 C   0  0  0  0  0  0  0  0  0  0  0  0
  -14.0697  -19.4914   10.7238 C   0  0  0  0  0  0  0  0  0  0  0  0
  -13.1709  -18.5631   10.9721 N   0  0  0  0  0  0  0  0  0  0  0  0
  -11.9090  -18.7441   10.5741 C   0  0  0  0  0  0  0  0  0  0  0  0
  -10.9593  -17.8287   10.8033 N   0  0  0  0  0  0  0  0  0  0  0  0
   -9.7208  -18.0338   10.3985 C   0  0  0  0  0  0  0  0  0  0  0  0
   -9.3453  -19.1382    9.7595 N   0  0  0  0  0  0  0  0  0  0  0  0
   -8.7681  -17.0597   10.6568 N   0  0  0  0  0  0  0  0  0  0  0  0
   -8.9865  -16.1431   11.6197 C   0  0  0  0  0  0  0  0  0  0  0  0
  -10.0183  -16.1695   12.2620 O   0  0  0  0  0  0  0  0  0  0  0  0
   -7.9737  -15.1079   11.8950 C   0  0  0  0  0  0  0  0  0  0  0  0
   -6.6053  -15.4470   11.9468 C   0  0  0  0  0  0  0  0  0  0  0  0
   -5.9285  -16.6024   11.7907 N   0  0  0  0  0  0  0  0  0  0  0  0
   -4.6513  -16.3876   11.9366 C   0  0  0  0  0  0  0  0  0  0  0  0
   -4.4269  -15.0738   12.1977 N   0  0  0  0  0  0  0  0  0  0  0  0
   -5.6576  -14.4453   12.2104 C   0  0  0  0  0  0  0  0  0  0  0  0
   -6.0688  -13.1367   12.4174 C   0  0  0  0  0  0  0  0  0  0  0  0
   -7.4117  -12.8142   12.3637 C   0  0  0  0  0  0  0  0  0  0  0  0
   -8.3592  -13.7857   12.1002 C   0  0  0  0  0  0  0  0  0  0  0  0
  -14.7682  -21.7091    9.7797 C   0  0  0  0  0  0  0  0  0  0  0  0
  -14.4858  -22.8783   10.5518 O   0  0  0  0  0  0  0  0  0  0  0  0
  -14.7612  -22.0662    8.2926 C   0  0  0  0  0  0  0  0  0  0  0  0
  -15.1015  -20.9106    7.5235 O   0  0  0  0  0  0  0  0  0  0  0  0
  -15.7820  -23.1741    8.0287 C   0  0  0  0  0  0  0  0  0  0  0  0
  -16.7894  -22.6909    7.1366 O   0  0  0  0  0  0  0  0  0  0  0  0
  1  2  1  0
  2  3  2  0
  2 11  1  0
  3  4  1  0
  3  8  1  0
  4  5  2  0
  5  6  1  0
  5 24  1  0
  6  7  2  0
  7  8  1  0
  8  9  2  0
  9 10  1  0
 10 11  2  0
 10 12  1  0
 12 13  1  0
 13 14  2  0
 13 15  1  0
 15 16  2  0
 15 23  1  0
 16 17  1  0
 16 20  1  0
 17 18  2  0
 18 19  1  0
 19 20  1  0
 20 21  2  0
 21 22  1  0
 22 23  2  0
 24 25  1  0
 24 26  1  0
 26 27  1  0
 26 28  1  0
 28 29  1  0
M  END
>  <Gold.Gold.Protein.RotatedWaterAtoms>  (390) 


>  <Gold.Id.Protein>  (390) 


>  <Gold.PLP.Chemscore.CHOScore>  (390) 
0.6241

>  <Gold.PLP.Chemscore.Hbond>  (390) 
4.6500

>  <Gold.PLP.Chemscore.Internal.Correction>  (390) 
0.5953

>  <Gold.PLP.Chemscore.Metal>  (390) 
0.0000

>  <Gold.PLP.Fitness>  (390) 
70.7769

>  <Gold.PLP.PLP>  (390) 
-62.2019

>  <Gold.PLP.ligand.clash>  (390) 
4.5231

>  <Gold.PLP.ligand.torsion>  (390) 
1.6598

>  <Gold.PLP.part.buried>  (390) 
-12.2429

>  <Gold.PLP.part.hbond>  (390) 
-8.4640

>  <Gold.PLP.part.metal>  (390) 
0.0000

>  <Gold.PLP.part.nonpolar>  (390) 
-42.2843

>  <Gold.PLP.part.repulsive>  (390) 
0.3015

>  <Gold.Protein.RotatedAtoms>  (390) 


>  <Gold.Protein.RotatedTorsions>  (390) 


>  <Gold.Protein.RotatedWaterAtoms>  (390) 


>  <Gold.Version>  (390) 
5.3.0

>  <PLP.Chemscore.CHOScore>  (390) 


>  <PLP.Chemscore.Hbond>  (390) 


>  <PLP.Chemscore.Internal.Correction>  (390) 


>  <PLP.Chemscore.Metal>  (390) 


>  <PLP.Fitness>  (390) 


>  <PLP.PLP>  (390) 


>  <PLP.ligand.clash>  (390) 


>  <PLP.ligand.torsion>  (390) 


>  <PLP.part.buried>  (390) 


>  <PLP.part.hbond>  (390) 


>  <PLP.part.metal>  (390) 


>  <PLP.part.nonpolar>  (390) 


>  <PLP.part.repulsive>  (390) 


>  <Version>  (390) 


$$$$
3390|Compound_2092|Compounds_3D_F|sdf|607|dock1|1
     RDKit          3D

 31 35  0  0  0  0  0  0  0  0999 V2000
   -9.0456  -21.3289    7.6540 O   0  0  0  0  0  0  0  0  0  0  0  0
   -9.2227  -20.7540    8.8680 C   0  0  0  0  0  0  0  0  0  0  0  0
   -8.5309  -19.6762    9.2133 N   0  0  0  0  0  0  0  0  0  0  0  0
   -8.6972  -19.1051   10.3992 C   0  0  0  0  0  0  0  0  0  0  0  0
   -9.5508  -19.5729   11.2942 N   0  0  0  0  0  0  0  0  0  0  0  0
  -10.2833  -20.6492   11.0309 C   0  0  0  0  0  0  0  0  0  0  0  0
  -10.1444  -21.2830    9.7848 C   0  0  0  0  0  0  0  0  0  0  0  0
  -10.9946  -22.3386    9.7769 N   0  0  0  0  0  0  0  0  0  0  0  0
  -11.6309  -22.3911   10.9104 C   0  0  0  0  0  0  0  0  0  0  0  0
  -11.2300  -21.3668   11.7178 N   0  0  0  0  0  0  0  0  0  0  0  0
  -11.7152  -21.0887   13.0716 C   0  0  0  0  0  0  0  0  0  0  0  0
  -11.2755  -22.1188   13.9844 O   0  0  0  0  0  0  0  0  0  0  0  0
  -12.1763  -22.0382   15.1100 C   0  0  0  0  0  0  0  0  0  0  0  0
  -12.1644  -23.3511   15.8967 C   0  0  0  0  0  0  0  0  0  0  0  0
  -10.8242  -23.8392   15.9893 O   0  0  0  0  0  0  0  0  0  0  0  0
  -13.5686  -21.7952   14.4863 C   0  0  0  0  0  0  0  0  0  0  0  0
  -14.3314  -20.8996   15.2977 O   0  0  0  0  0  0  0  0  0  0  0  0
  -13.2575  -21.1529   13.1136 C   0  0  0  0  0  0  0  0  0  0  0  0
  -13.8201  -19.8418   13.0355 O   0  0  0  0  0  0  0  0  0  0  0  0
   -7.9481  -17.9777   10.7119 N   0  0  0  0  0  0  0  0  0  0  0  0
   -8.5439  -16.9075   11.2755 C   0  0  0  0  0  0  0  0  0  0  0  0
   -9.7370  -16.9294   11.5091 O   0  0  0  0  0  0  0  0  0  0  0  0
   -7.7500  -15.7121   11.6073 C   0  0  0  0  0  0  0  0  0  0  0  0
   -6.3537  -15.8109   11.7838 C   0  0  0  0  0  0  0  0  0  0  0  0
   -5.4802  -16.8345   11.7159 N   0  0  0  0  0  0  0  0  0  0  0  0
   -4.2754  -16.4032   11.9638 C   0  0  0  0  0  0  0  0  0  0  0  0
   -4.3008  -15.0670   12.2066 N   0  0  0  0  0  0  0  0  0  0  0  0
   -5.6168  -14.6579   12.0995 C   0  0  0  0  0  0  0  0  0  0  0  0
   -6.2601  -13.4374   12.2354 C   0  0  0  0  0  0  0  0  0  0  0  0
   -7.6279  -13.3504   12.0620 C   0  0  0  0  0  0  0  0  0  0  0  0
   -8.3711  -14.4730   11.7447 C   0  0  0  0  0  0  0  0  0  0  0  0
  1  2  1  0
  2  3  2  0
  2  7  1  0
  3  4  1  0
  4  5  2  0
  4 20  1  0
  5  6  1  0
  6  7  2  0
  6 10  1  0
  7  8  1  0
  8  9  2  0
  9 10  1  0
 10 11  1  0
 11 12  1  0
 11 18  1  0
 12 13  1  0
 13 14  1  0
 13 16  1  0
 14 15  1  0
 16 17  1  0
 16 18  1  0
 18 19  1  0
 20 21  1  0
 21 22  2  0
 21 23  1  0
 23 24  2  0
 23 31  1  0
 24 25  1  0
 24 28  1  0
 25 26  2  0
 26 27  1  0
 27 28  1  0
 28 29  2  0
 29 30  1  0
 30 31  2  0
M  END
>  <Gold.Gold.Protein.RotatedWaterAtoms>  (391) 


>  <Gold.Id.Protein>  (391) 


>  <Gold.PLP.Chemscore.CHOScore>  (391) 
0.0000

>  <Gold.PLP.Chemscore.Hbond>  (391) 
4.8000

>  <Gold.PLP.Chemscore.Internal.Correction>  (391) 
0.4788

>  <Gold.PLP.Chemscore.Metal>  (391) 
0.0000

>  <Gold.PLP.Fitness>  (391) 
68.5249

>  <Gold.PLP.PLP>  (391) 
-55.7151

>  <Gold.PLP.ligand.clash>  (391) 
0.0000

>  <Gold.PLP.ligand.torsion>  (391) 
1.0345

>  <Gold.PLP.part.buried>  (391) 
-12.7278

>  <Gold.PLP.part.hbond>  (391) 
-6.9143

>  <Gold.PLP.part.metal>  (391) 
0.0000

>  <Gold.PLP.part.nonpolar>  (391) 
-37.4195

>  <Gold.PLP.part.repulsive>  (391) 
0.2366

>  <Gold.Protein.RotatedAtoms>  (391) 


>  <Gold.Protein.RotatedTorsions>  (391) 


>  <Gold.Protein.RotatedWaterAtoms>  (391) 


>  <Gold.Version>  (391) 
5.3.0

>  <PLP.Chemscore.CHOScore>  (391) 


>  <PLP.Chemscore.Hbond>  (391) 


>  <PLP.Chemscore.Internal.Correction>  (391) 


>  <PLP.Chemscore.Metal>  (391) 


>  <PLP.Fitness>  (391) 


>  <PLP.PLP>  (391) 


>  <PLP.ligand.clash>  (391) 


>  <PLP.ligand.torsion>  (391) 


>  <PLP.part.buried>  (391) 


>  <PLP.part.hbond>  (391) 


>  <PLP.part.metal>  (391) 


>  <PLP.part.nonpolar>  (391) 


>  <PLP.part.repulsive>  (391) 


>  <Version>  (391) 


$$$$
3391|Compound_2092|Compounds_3D_F|sdf|607|dock2|1
     RDKit          3D

 31 35  0  0  0  0  0  0  0  0999 V2000
  -13.5640  -18.2199    8.8307 O   0  0  0  0  0  0  0  0  0  0  0  0
  -12.8387  -18.3479    9.9679 C   0  0  0  0  0  0  0  0  0  0  0  0
  -11.8338  -17.5214   10.2258 N   0  0  0  0  0  0  0  0  0  0  0  0
  -11.1179  -17.6375   11.3367 C   0  0  0  0  0  0  0  0  0  0  0  0
  -11.3615  -18.5733   12.2386 N   0  0  0  0  0  0  0  0  0  0  0  0
  -12.3488  -19.4435   12.0592 C   0  0  0  0  0  0  0  0  0  0  0  0
  -13.1371  -19.3542   10.8997 C   0  0  0  0  0  0  0  0  0  0  0  0
  -14.0587  -20.3458   10.9662 N   0  0  0  0  0  0  0  0  0  0  0  0
  -13.8906  -21.0207   12.0657 C   0  0  0  0  0  0  0  0  0  0  0  0
  -12.8494  -20.5002   12.7775 N   0  0  0  0  0  0  0  0  0  0  0  0
  -12.3524  -20.9848   14.0673 C   0  0  0  0  0  0  0  0  0  0  0  0
  -11.0687  -21.6270   13.9020 O   0  0  0  0  0  0  0  0  0  0  0  0
  -10.9145  -22.4716   15.0629 C   0  0  0  0  0  0  0  0  0  0  0  0
   -9.8805  -23.5668   14.7911 C   0  0  0  0  0  0  0  0  0  0  0  0
  -10.0023  -24.5932   15.7782 O   0  0  0  0  0  0  0  0  0  0  0  0
  -12.3110  -23.0920   15.2895 C   0  0  0  0  0  0  0  0  0  0  0  0
  -12.5893  -23.2023   16.6869 O   0  0  0  0  0  0  0  0  0  0  0  0
  -13.2801  -22.0883   14.6206 C   0  0  0  0  0  0  0  0  0  0  0  0
  -14.1867  -21.5498   15.5847 O   0  0  0  0  0  0  0  0  0  0  0  0
  -10.0758  -16.7462   11.5594 N   0  0  0  0  0  0  0  0  0  0  0  0
   -8.8035  -17.1914   11.5929 C   0  0  0  0  0  0  0  0  0  0  0  0
   -8.5690  -18.3731   11.4290 O   0  0  0  0  0  0  0  0  0  0  0  0
   -7.6984  -16.2467   11.8289 C   0  0  0  0  0  0  0  0  0  0  0  0
   -7.9506  -14.8607   11.9060 C   0  0  0  0  0  0  0  0  0  0  0  0
   -9.0678  -14.1140   11.8069 N   0  0  0  0  0  0  0  0  0  0  0  0
   -8.7700  -12.8535   11.9526 C   0  0  0  0  0  0  0  0  0  0  0  0
   -7.4346  -12.7118   12.1567 N   0  0  0  0  0  0  0  0  0  0  0  0
   -6.8816  -13.9784   12.1319 C   0  0  0  0  0  0  0  0  0  0  0  0
   -5.5935  -14.4700   12.2769 C   0  0  0  0  0  0  0  0  0  0  0  0
   -5.3558  -15.8286   12.1986 C   0  0  0  0  0  0  0  0  0  0  0  0
   -6.3957  -16.7148   11.9829 C   0  0  0  0  0  0  0  0  0  0  0  0
  1  2  1  0
  2  3  2  0
  2  7  1  0
  3  4  1  0
  4  5  2  0
  4 20  1  0
  5  6  1  0
  6  7  2  0
  6 10  1  0
  7  8  1  0
  8  9  2  0
  9 10  1  0
 10 11  1  0
 11 12  1  0
 11 18  1  0
 12 13  1  0
 13 14  1  0
 13 16  1  0
 14 15  1  0
 16 17  1  0
 16 18  1  0
 18 19  1  0
 20 21  1  0
 21 22  2  0
 21 23  1  0
 23 24  2  0
 23 31  1  0
 24 25  1  0
 24 28  1  0
 25 26  2  0
 26 27  1  0
 27 28  1  0
 28 29  2  0
 29 30  1  0
 30 31  2  0
M  END
>  <Gold.Gold.Protein.RotatedWaterAtoms>  (392) 


>  <Gold.Id.Protein>  (392) 


>  <Gold.PLP.Chemscore.CHOScore>  (392) 
0.0000

>  <Gold.PLP.Chemscore.Hbond>  (392) 
3.3364

>  <Gold.PLP.Chemscore.Internal.Correction>  (392) 
0.4510

>  <Gold.PLP.Chemscore.Metal>  (392) 
0.0000

>  <Gold.PLP.Fitness>  (392) 
65.0329

>  <Gold.PLP.PLP>  (392) 
-56.3321

>  <Gold.PLP.ligand.clash>  (392) 
0.0000

>  <Gold.PLP.ligand.torsion>  (392) 
0.8797

>  <Gold.PLP.part.buried>  (392) 
-4.9352

>  <Gold.PLP.part.hbond>  (392) 
-5.1092

>  <Gold.PLP.part.metal>  (392) 
0.0000

>  <Gold.PLP.part.nonpolar>  (392) 
-46.1794

>  <Gold.PLP.part.repulsive>  (392) 
0.4435

>  <Gold.Protein.RotatedAtoms>  (392) 


>  <Gold.Protein.RotatedTorsions>  (392) 


>  <Gold.Protein.RotatedWaterAtoms>  (392) 


>  <Gold.Version>  (392) 
5.3.0

>  <PLP.Chemscore.CHOScore>  (392) 


>  <PLP.Chemscore.Hbond>  (392) 


>  <PLP.Chemscore.Internal.Correction>  (392) 


>  <PLP.Chemscore.Metal>  (392) 


>  <PLP.Fitness>  (392) 


>  <PLP.PLP>  (392) 


>  <PLP.ligand.clash>  (392) 


>  <PLP.ligand.torsion>  (392) 


>  <PLP.part.buried>  (392) 


>  <PLP.part.hbond>  (392) 


>  <PLP.part.metal>  (392) 


>  <PLP.part.nonpolar>  (392) 


>  <PLP.part.repulsive>  (392) 


>  <Version>  (392) 


$$$$
3392|Compound_2092|Compounds_3D_F|sdf|607|dock3|1
     RDKit          3D

 31 35  0  0  0  0  0  0  0  0999 V2000
   -7.0118  -19.0438    5.9805 O   0  0  0  0  0  0  0  0  0  0  0  0
   -7.4591  -18.6940    7.2106 C   0  0  0  0  0  0  0  0  0  0  0  0
   -8.5770  -19.2161    7.6974 N   0  0  0  0  0  0  0  0  0  0  0  0
   -9.0233  -18.8810    8.9010 C   0  0  0  0  0  0  0  0  0  0  0  0
   -8.3875  -18.0170    9.6741 N   0  0  0  0  0  0  0  0  0  0  0  0
   -7.2607  -17.4458    9.2640 C   0  0  0  0  0  0  0  0  0  0  0  0
   -6.7477  -17.7757    7.9983 C   0  0  0  0  0  0  0  0  0  0  0  0
   -5.6071  -17.0628    7.8316 N   0  0  0  0  0  0  0  0  0  0  0  0
   -5.3926  -16.3349    8.8884 C   0  0  0  0  0  0  0  0  0  0  0  0
   -6.3835  -16.5389    9.8038 N   0  0  0  0  0  0  0  0  0  0  0  0
   -6.4950  -15.9015   11.1180 C   0  0  0  0  0  0  0  0  0  0  0  0
   -7.8132  -15.3362   11.2920 O   0  0  0  0  0  0  0  0  0  0  0  0
   -7.6675  -14.3473   12.3339 C   0  0  0  0  0  0  0  0  0  0  0  0
   -8.8173  -13.3387   12.2754 C   0  0  0  0  0  0  0  0  0  0  0  0
  -10.0262  -13.9685   12.7052 O   0  0  0  0  0  0  0  0  0  0  0  0
   -6.3222  -13.6502   12.0328 C   0  0  0  0  0  0  0  0  0  0  0  0
   -5.6362  -13.3397   13.2475 O   0  0  0  0  0  0  0  0  0  0  0  0
   -5.5312  -14.6989   11.2155 C   0  0  0  0  0  0  0  0  0  0  0  0
   -4.3323  -15.0666   11.9003 O   0  0  0  0  0  0  0  0  0  0  0  0
  -10.1996  -19.4567    9.3647 N   0  0  0  0  0  0  0  0  0  0  0  0
  -10.3675  -19.6779   10.6841 C   0  0  0  0  0  0  0  0  0  0  0  0
   -9.4886  -19.3741   11.4675 O   0  0  0  0  0  0  0  0  0  0  0  0
  -11.6145  -20.2881   11.1760 C   0  0  0  0  0  0  0  0  0  0  0  0
  -12.7440  -20.3765   10.3353 C   0  0  0  0  0  0  0  0  0  0  0  0
  -12.9857  -20.0019    9.0638 N   0  0  0  0  0  0  0  0  0  0  0  0
  -14.2100  -20.3091    8.7388 C   0  0  0  0  0  0  0  0  0  0  0  0
  -14.8339  -20.9051    9.7879 N   0  0  0  0  0  0  0  0  0  0  0  0
  -13.9223  -20.9625   10.8254 C   0  0  0  0  0  0  0  0  0  0  0  0
  -13.9696  -21.4475   12.1233 C   0  0  0  0  0  0  0  0  0  0  0  0
  -12.8590  -21.3555   12.9398 C   0  0  0  0  0  0  0  0  0  0  0  0
  -11.6870  -20.7875   12.4742 C   0  0  0  0  0  0  0  0  0  0  0  0
  1  2  1  0
  2  3  2  0
  2  7  1  0
  3  4  1  0
  4  5  2  0
  4 20  1  0
  5  6  1  0
  6  7  2  0
  6 10  1  0
  7  8  1  0
  8  9  2  0
  9 10  1  0
 10 11  1  0
 11 12  1  0
 11 18  1  0
 12 13  1  0
 13 14  1  0
 13 16  1  0
 14 15  1  0
 16 17  1  0
 16 18  1  0
 18 19  1  0
 20 21  1  0
 21 22  2  0
 21 23  1  0
 23 24  2  0
 23 31  1  0
 24 25  1  0
 24 28  1  0
 25 26  2  0
 26 27  1  0
 27 28  1  0
 28 29  2  0
 29 30  1  0
 30 31  2  0
M  END
>  <Gold.Gold.Protein.RotatedWaterAtoms>  (393) 


>  <Gold.Id.Protein>  (393) 


>  <Gold.PLP.Chemscore.CHOScore>  (393) 
2.0000

>  <Gold.PLP.Chemscore.Hbond>  (393) 
2.8320

>  <Gold.PLP.Chemscore.Internal.Correction>  (393) 
0.4510

>  <Gold.PLP.Chemscore.Metal>  (393) 
0.0000

>  <Gold.PLP.Fitness>  (393) 
57.5352

>  <Gold.PLP.PLP>  (393) 
-43.7679

>  <Gold.PLP.ligand.clash>  (393) 
0.0000

>  <Gold.PLP.ligand.torsion>  (393) 
0.5899

>  <Gold.PLP.part.buried>  (393) 
-8.1727

>  <Gold.PLP.part.hbond>  (393) 
-6.7925

>  <Gold.PLP.part.metal>  (393) 
0.0000

>  <Gold.PLP.part.nonpolar>  (393) 
-31.5042

>  <Gold.PLP.part.repulsive>  (393) 
0.3421

>  <Gold.Protein.RotatedAtoms>  (393) 


>  <Gold.Protein.RotatedTorsions>  (393) 


>  <Gold.Protein.RotatedWaterAtoms>  (393) 


>  <Gold.Version>  (393) 
5.3.0

>  <PLP.Chemscore.CHOScore>  (393) 


>  <PLP.Chemscore.Hbond>  (393) 


>  <PLP.Chemscore.Internal.Correction>  (393) 


>  <PLP.Chemscore.Metal>  (393) 


>  <PLP.Fitness>  (393) 


>  <PLP.PLP>  (393) 


>  <PLP.ligand.clash>  (393) 


>  <PLP.ligand.torsion>  (393) 


>  <PLP.part.buried>  (393) 


>  <PLP.part.hbond>  (393) 


>  <PLP.part.metal>  (393) 


>  <PLP.part.nonpolar>  (393) 


>  <PLP.part.repulsive>  (393) 


>  <Version>  (393) 


$$$$
3393|Compound_2092|Compounds_3D_F|sdf|607|dock4|1
     RDKit          3D

 31 35  0  0  0  0  0  0  0  0999 V2000
   -8.6291  -19.0738    7.9377 O   0  0  0  0  0  0  0  0  0  0  0  0
   -9.1258  -18.6898    9.1383 C   0  0  0  0  0  0  0  0  0  0  0  0
   -8.9506  -17.4506    9.5775 N   0  0  0  0  0  0  0  0  0  0  0  0
   -9.4335  -17.0641   10.7513 C   0  0  0  0  0  0  0  0  0  0  0  0
  -10.1077  -17.8827   11.5410 N   0  0  0  0  0  0  0  0  0  0  0  0
  -10.3278  -19.1415   11.1791 C   0  0  0  0  0  0  0  0  0  0  0  0
   -9.8399  -19.5927    9.9412 C   0  0  0  0  0  0  0  0  0  0  0  0
  -10.1985  -20.8942    9.8212 N   0  0  0  0  0  0  0  0  0  0  0  0
  -10.8594  -21.2611   10.8800 C   0  0  0  0  0  0  0  0  0  0  0  0
  -10.9698  -20.2133   11.7468 N   0  0  0  0  0  0  0  0  0  0  0  0
  -11.6431  -20.2309   13.0476 C   0  0  0  0  0  0  0  0  0  0  0  0
  -11.1814  -21.3495   13.8371 O   0  0  0  0  0  0  0  0  0  0  0  0
  -12.2107  -21.5665   14.8262 C   0  0  0  0  0  0  0  0  0  0  0  0
  -12.1179  -22.9871   15.3884 C   0  0  0  0  0  0  0  0  0  0  0  0
  -10.8935  -23.1348   16.1107 O   0  0  0  0  0  0  0  0  0  0  0  0
  -13.5400  -21.3738   14.0630 C   0  0  0  0  0  0  0  0  0  0  0  0
  -14.5043  -20.7233   14.8932 O   0  0  0  0  0  0  0  0  0  0  0  0
  -13.1575  -20.4715   12.8658 C   0  0  0  0  0  0  0  0  0  0  0  0
  -13.8752  -19.2372   12.9200 O   0  0  0  0  0  0  0  0  0  0  0  0
   -9.2227  -15.7547   11.1652 N   0  0  0  0  0  0  0  0  0  0  0  0
   -8.0178  -15.1768   10.9857 C   0  0  0  0  0  0  0  0  0  0  0  0
   -7.1160  -15.8023   10.4623 O   0  0  0  0  0  0  0  0  0  0  0  0
   -7.7939  -13.7887   11.4242 C   0  0  0  0  0  0  0  0  0  0  0  0
   -6.5993  -13.4350   12.0865 C   0  0  0  0  0  0  0  0  0  0  0  0
   -5.5020  -14.1259   12.4527 N   0  0  0  0  0  0  0  0  0  0  0  0
   -4.6593  -13.3308   13.0498 C   0  0  0  0  0  0  0  0  0  0  0  0
   -5.1661  -12.0716   13.1032 N   0  0  0  0  0  0  0  0  0  0  0  0
   -6.4071  -12.1054   12.4955 C   0  0  0  0  0  0  0  0  0  0  0  0
   -7.3848  -11.1540   12.2485 C   0  0  0  0  0  0  0  0  0  0  0  0
   -8.5519  -11.5097   11.6006 C   0  0  0  0  0  0  0  0  0  0  0  0
   -8.7580  -12.8126   11.1842 C   0  0  0  0  0  0  0  0  0  0  0  0
  1  2  1  0
  2  3  2  0
  2  7  1  0
  3  4  1  0
  4  5  2  0
  4 20  1  0
  5  6  1  0
  6  7  2  0
  6 10  1  0
  7  8  1  0
  8  9  2  0
  9 10  1  0
 10 11  1  0
 11 12  1  0
 11 18  1  0
 12 13  1  0
 13 14  1  0
 13 16  1  0
 14 15  1  0
 16 17  1  0
 16 18  1  0
 18 19  1  0
 20 21  1  0
 21 22  2  0
 21 23  1  0
 23 24  2  0
 23 31  1  0
 24 25  1  0
 24 28  1  0
 25 26  2  0
 26 27  1  0
 27 28  1  0
 28 29  2  0
 29 30  1  0
 30 31  2  0
M  END
>  <Gold.Gold.Protein.RotatedWaterAtoms>  (394) 


>  <Gold.Id.Protein>  (394) 


>  <Gold.PLP.Chemscore.CHOScore>  (394) 
0.3495

>  <Gold.PLP.Chemscore.Hbond>  (394) 
3.4464

>  <Gold.PLP.Chemscore.Internal.Correction>  (394) 
0.4510

>  <Gold.PLP.Chemscore.Metal>  (394) 
0.0000

>  <Gold.PLP.Fitness>  (394) 
67.5774

>  <Gold.PLP.PLP>  (394) 
-58.0337

>  <Gold.PLP.ligand.clash>  (394) 
0.0000

>  <Gold.PLP.ligand.torsion>  (394) 
1.1475

>  <Gold.PLP.part.buried>  (394) 
-7.7533

>  <Gold.PLP.part.hbond>  (394) 
-7.9552

>  <Gold.PLP.part.metal>  (394) 
0.0000

>  <Gold.PLP.part.nonpolar>  (394) 
-43.2071

>  <Gold.PLP.part.repulsive>  (394) 
0.4415

>  <Gold.Protein.RotatedAtoms>  (394) 


>  <Gold.Protein.RotatedTorsions>  (394) 


>  <Gold.Protein.RotatedWaterAtoms>  (394) 


>  <Gold.Version>  (394) 
5.3.0

>  <PLP.Chemscore.CHOScore>  (394) 


>  <PLP.Chemscore.Hbond>  (394) 


>  <PLP.Chemscore.Internal.Correction>  (394) 


>  <PLP.Chemscore.Metal>  (394) 


>  <PLP.Fitness>  (394) 


>  <PLP.PLP>  (394) 


>  <PLP.ligand.clash>  (394) 


>  <PLP.ligand.torsion>  (394) 


>  <PLP.part.buried>  (394) 


>  <PLP.part.hbond>  (394) 


>  <PLP.part.metal>  (394) 


>  <PLP.part.nonpolar>  (394) 


>  <PLP.part.repulsive>  (394) 


>  <Version>  (394) 


$$$$
3394|Compound_2092|Compounds_3D_F|sdf|607|dock5|1
     RDKit          3D

 31 35  0  0  0  0  0  0  0  0999 V2000
   -8.4795  -21.6091    8.2552 O   0  0  0  0  0  0  0  0  0  0  0  0
   -8.8163  -20.9187    9.3712 C   0  0  0  0  0  0  0  0  0  0  0  0
   -8.2513  -19.7488    9.6389 N   0  0  0  0  0  0  0  0  0  0  0  0
   -8.5744  -19.0642   10.7284 C   0  0  0  0  0  0  0  0  0  0  0  0
   -9.4664  -19.5044   11.5996 N   0  0  0  0  0  0  0  0  0  0  0  0
  -10.0795  -20.6672   11.4095 C   0  0  0  0  0  0  0  0  0  0  0  0
   -9.7727  -21.4233   10.2658 C   0  0  0  0  0  0  0  0  0  0  0  0
  -10.5283  -22.5474   10.3159 N   0  0  0  0  0  0  0  0  0  0  0  0
  -11.2613  -22.5294   11.3906 C   0  0  0  0  0  0  0  0  0  0  0  0
  -11.0238  -21.3870   12.0976 N   0  0  0  0  0  0  0  0  0  0  0  0
  -11.6548  -21.0027   13.3625 C   0  0  0  0  0  0  0  0  0  0  0  0
  -11.3506  -21.9715   14.3903 O   0  0  0  0  0  0  0  0  0  0  0  0
  -12.3730  -21.7934   15.3943 C   0  0  0  0  0  0  0  0  0  0  0  0
  -12.4864  -23.0458   16.2669 C   0  0  0  0  0  0  0  0  0  0  0  0
  -12.9096  -24.1497   15.4638 O   0  0  0  0  0  0  0  0  0  0  0  0
  -13.6770  -21.5717   14.5963 C   0  0  0  0  0  0  0  0  0  0  0  0
  -14.5049  -20.6061   15.2480 O   0  0  0  0  0  0  0  0  0  0  0  0
  -13.1927  -21.0363   13.2279 C   0  0  0  0  0  0  0  0  0  0  0  0
  -13.7081  -19.7246   12.9928 O   0  0  0  0  0  0  0  0  0  0  0  0
   -7.9536  -17.8436   10.9625 N   0  0  0  0  0  0  0  0  0  0  0  0
   -8.6646  -16.8092   11.4548 C   0  0  0  0  0  0  0  0  0  0  0  0
   -9.8493  -16.9450   11.6927 O   0  0  0  0  0  0  0  0  0  0  0  0
   -8.0068  -15.5150   11.7033 C   0  0  0  0  0  0  0  0  0  0  0  0
   -6.6110  -15.4516   11.8989 C   0  0  0  0  0  0  0  0  0  0  0  0
   -5.6334  -16.3788   11.9153 N   0  0  0  0  0  0  0  0  0  0  0  0
   -4.4851  -15.8048   12.1408 C   0  0  0  0  0  0  0  0  0  0  0  0
   -4.6553  -14.4646   12.2830 N   0  0  0  0  0  0  0  0  0  0  0  0
   -6.0051  -14.2068   12.1341 C   0  0  0  0  0  0  0  0  0  0  0  0
   -6.7757  -13.0550   12.1728 C   0  0  0  0  0  0  0  0  0  0  0  0
   -8.1419  -13.1268   11.9815 C   0  0  0  0  0  0  0  0  0  0  0  0
   -8.7573  -14.3423   11.7424 C   0  0  0  0  0  0  0  0  0  0  0  0
  1  2  1  0
  2  3  2  0
  2  7  1  0
  3  4  1  0
  4  5  2  0
  4 20  1  0
  5  6  1  0
  6  7  2  0
  6 10  1  0
  7  8  1  0
  8  9  2  0
  9 10  1  0
 10 11  1  0
 11 12  1  0
 11 18  1  0
 12 13  1  0
 13 14  1  0
 13 16  1  0
 14 15  1  0
 16 17  1  0
 16 18  1  0
 18 19  1  0
 20 21  1  0
 21 22  2  0
 21 23  1  0
 23 24  2  0
 23 31  1  0
 24 25  1  0
 24 28  1  0
 25 26  2  0
 26 27  1  0
 27 28  1  0
 28 29  2  0
 29 30  1  0
 30 31  2  0
M  END
>  <Gold.Gold.Protein.RotatedWaterAtoms>  (395) 


>  <Gold.Id.Protein>  (395) 


>  <Gold.PLP.Chemscore.CHOScore>  (395) 
0.0000

>  <Gold.PLP.Chemscore.Hbond>  (395) 
2.7761

>  <Gold.PLP.Chemscore.Internal.Correction>  (395) 
0.4473

>  <Gold.PLP.Chemscore.Metal>  (395) 
0.0000

>  <Gold.PLP.Fitness>  (395) 
67.5611

>  <Gold.PLP.PLP>  (395) 
-59.9766

>  <Gold.PLP.ligand.clash>  (395) 
0.0000

>  <Gold.PLP.ligand.torsion>  (395) 
0.5955

>  <Gold.PLP.part.buried>  (395) 
-12.1097

>  <Gold.PLP.part.hbond>  (395) 
-7.0000

>  <Gold.PLP.part.metal>  (395) 
0.0000

>  <Gold.PLP.part.nonpolar>  (395) 
-41.6745

>  <Gold.PLP.part.repulsive>  (395) 
0.2617

>  <Gold.Protein.RotatedAtoms>  (395) 


>  <Gold.Protein.RotatedTorsions>  (395) 


>  <Gold.Protein.RotatedWaterAtoms>  (395) 


>  <Gold.Version>  (395) 
5.3.0

>  <PLP.Chemscore.CHOScore>  (395) 


>  <PLP.Chemscore.Hbond>  (395) 


>  <PLP.Chemscore.Internal.Correction>  (395) 


>  <PLP.Chemscore.Metal>  (395) 


>  <PLP.Fitness>  (395) 


>  <PLP.PLP>  (395) 


>  <PLP.ligand.clash>  (395) 


>  <PLP.ligand.torsion>  (395) 


>  <PLP.part.buried>  (395) 


>  <PLP.part.hbond>  (395) 


>  <PLP.part.metal>  (395) 


>  <PLP.part.nonpolar>  (395) 


>  <PLP.part.repulsive>  (395) 


>  <Version>  (395) 


$$$$
3395|Compound_2092|Compounds_3D_F|sdf|607|dock6|1
     RDKit          3D

 31 35  0  0  0  0  0  0  0  0999 V2000
   -8.4941  -19.5426    7.5474 O   0  0  0  0  0  0  0  0  0  0  0  0
   -8.7169  -19.1923    8.8370 C   0  0  0  0  0  0  0  0  0  0  0  0
   -8.0180  -18.2177    9.4036 N   0  0  0  0  0  0  0  0  0  0  0  0
   -8.2288  -17.8663   10.6654 C   0  0  0  0  0  0  0  0  0  0  0  0
   -9.1358  -18.4615   11.4215 N   0  0  0  0  0  0  0  0  0  0  0  0
   -9.8793  -19.4483   10.9340 C   0  0  0  0  0  0  0  0  0  0  0  0
   -9.6944  -19.8495    9.6003 C   0  0  0  0  0  0  0  0  0  0  0  0
  -10.5675  -20.8585    9.3622 N   0  0  0  0  0  0  0  0  0  0  0  0
  -11.2595  -21.0957   10.4381 C   0  0  0  0  0  0  0  0  0  0  0  0
  -10.8749  -20.2483   11.4359 N   0  0  0  0  0  0  0  0  0  0  0  0
  -11.4192  -20.2053   12.7951 C   0  0  0  0  0  0  0  0  0  0  0  0
  -10.8909  -21.2955   13.5825 O   0  0  0  0  0  0  0  0  0  0  0  0
  -11.8212  -21.4606   14.6744 C   0  0  0  0  0  0  0  0  0  0  0  0
  -11.6841  -22.8579   15.2841 C   0  0  0  0  0  0  0  0  0  0  0  0
  -10.2999  -23.1957   15.3954 O   0  0  0  0  0  0  0  0  0  0  0  0
  -13.2167  -21.2849   14.0356 C   0  0  0  0  0  0  0  0  0  0  0  0
  -14.0917  -20.5905   14.9270 O   0  0  0  0  0  0  0  0  0  0  0  0
  -12.9457  -20.4366   12.7704 C   0  0  0  0  0  0  0  0  0  0  0  0
  -13.6463  -19.1935   12.8419 O   0  0  0  0  0  0  0  0  0  0  0  0
   -7.4699  -16.8388   11.2115 N   0  0  0  0  0  0  0  0  0  0  0  0
   -7.8728  -15.5590   11.0780 C   0  0  0  0  0  0  0  0  0  0  0  0
   -8.8998  -15.3048   10.4789 O   0  0  0  0  0  0  0  0  0  0  0  0
   -7.0686  -14.4693   11.6569 C   0  0  0  0  0  0  0  0  0  0  0  0
   -7.5333  -13.1380   11.6085 C   0  0  0  0  0  0  0  0  0  0  0  0
   -8.6454  -12.5611   11.1126 N   0  0  0  0  0  0  0  0  0  0  0  0
   -8.6054  -11.2751   11.3210 C   0  0  0  0  0  0  0  0  0  0  0  0
   -7.4582  -10.9446   11.9690 N   0  0  0  0  0  0  0  0  0  0  0  0
   -6.7500  -12.1151   12.1670 C   0  0  0  0  0  0  0  0  0  0  0  0
   -5.5329  -12.4160   12.7587 C   0  0  0  0  0  0  0  0  0  0  0  0
   -5.0852  -13.7222   12.8003 C   0  0  0  0  0  0  0  0  0  0  0  0
   -5.8444  -14.7451   12.2614 C   0  0  0  0  0  0  0  0  0  0  0  0
  1  2  1  0
  2  3  2  0
  2  7  1  0
  3  4  1  0
  4  5  2  0
  4 20  1  0
  5  6  1  0
  6  7  2  0
  6 10  1  0
  7  8  1  0
  8  9  2  0
  9 10  1  0
 10 11  1  0
 11 12  1  0
 11 18  1  0
 12 13  1  0
 13 14  1  0
 13 16  1  0
 14 15  1  0
 16 17  1  0
 16 18  1  0
 18 19  1  0
 20 21  1  0
 21 22  2  0
 21 23  1  0
 23 24  2  0
 23 31  1  0
 24 25  1  0
 24 28  1  0
 25 26  2  0
 26 27  1  0
 27 28  1  0
 28 29  2  0
 29 30  1  0
 30 31  2  0
M  END
>  <Gold.Gold.Protein.RotatedWaterAtoms>  (396) 


>  <Gold.Id.Protein>  (396) 


>  <Gold.PLP.Chemscore.CHOScore>  (396) 
0.0000

>  <Gold.PLP.Chemscore.Hbond>  (396) 
2.9120

>  <Gold.PLP.Chemscore.Internal.Correction>  (396) 
0.4473

>  <Gold.PLP.Chemscore.Metal>  (396) 
0.0000

>  <Gold.PLP.Fitness>  (396) 
63.3360

>  <Gold.PLP.PLP>  (396) 
-57.1073

>  <Gold.PLP.ligand.clash>  (396) 
0.0000

>  <Gold.PLP.ligand.torsion>  (396) 
1.4773

>  <Gold.PLP.part.buried>  (396) 
-7.8965

>  <Gold.PLP.part.hbond>  (396) 
-5.6205

>  <Gold.PLP.part.metal>  (396) 
0.0000

>  <Gold.PLP.part.nonpolar>  (396) 
-44.9610

>  <Gold.PLP.part.repulsive>  (396) 
0.4398

>  <Gold.Protein.RotatedAtoms>  (396) 


>  <Gold.Protein.RotatedTorsions>  (396) 


>  <Gold.Protein.RotatedWaterAtoms>  (396) 


>  <Gold.Version>  (396) 
5.3.0

>  <PLP.Chemscore.CHOScore>  (396) 


>  <PLP.Chemscore.Hbond>  (396) 


>  <PLP.Chemscore.Internal.Correction>  (396) 


>  <PLP.Chemscore.Metal>  (396) 


>  <PLP.Fitness>  (396) 


>  <PLP.PLP>  (396) 


>  <PLP.ligand.clash>  (396) 


>  <PLP.ligand.torsion>  (396) 


>  <PLP.part.buried>  (396) 


>  <PLP.part.hbond>  (396) 


>  <PLP.part.metal>  (396) 


>  <PLP.part.nonpolar>  (396) 


>  <PLP.part.repulsive>  (396) 


>  <Version>  (396) 


$$$$
3396|Compound_2092|Compounds_3D_F|sdf|607|dock7|1
     RDKit          3D

 31 35  0  0  0  0  0  0  0  0999 V2000
   -8.5937  -21.8592    7.6625 O   0  0  0  0  0  0  0  0  0  0  0  0
   -8.9275  -21.1856    8.7896 C   0  0  0  0  0  0  0  0  0  0  0  0
   -8.1963  -20.1603    9.2063 N   0  0  0  0  0  0  0  0  0  0  0  0
   -8.5149  -19.4935   10.3081 C   0  0  0  0  0  0  0  0  0  0  0  0
   -9.5659  -19.8099   11.0454 N   0  0  0  0  0  0  0  0  0  0  0  0
  -10.3517  -20.8239   10.7012 C   0  0  0  0  0  0  0  0  0  0  0  0
  -10.0558  -21.5545    9.5383 C   0  0  0  0  0  0  0  0  0  0  0  0
  -11.0016  -22.5182    9.4208 N   0  0  0  0  0  0  0  0  0  0  0  0
  -11.8386  -22.4273   10.4127 C   0  0  0  0  0  0  0  0  0  0  0  0
  -11.4830  -21.3937   11.2293 N   0  0  0  0  0  0  0  0  0  0  0  0
  -12.1765  -20.9741   12.4494 C   0  0  0  0  0  0  0  0  0  0  0  0
  -11.2940  -21.0754   13.5889 O   0  0  0  0  0  0  0  0  0  0  0  0
  -12.1648  -21.1328   14.7394 C   0  0  0  0  0  0  0  0  0  0  0  0
  -11.4271  -21.7387   15.9358 C   0  0  0  0  0  0  0  0  0  0  0  0
  -10.6797  -22.8791   15.5073 O   0  0  0  0  0  0  0  0  0  0  0  0
  -13.3330  -22.0462   14.3064 C   0  0  0  0  0  0  0  0  0  0  0  0
  -14.5669  -21.5726   14.8500 O   0  0  0  0  0  0  0  0  0  0  0  0
  -13.3422  -21.9370   12.7632 C   0  0  0  0  0  0  0  0  0  0  0  0
  -14.5827  -21.3940   12.3073 O   0  0  0  0  0  0  0  0  0  0  0  0
   -7.7162  -18.4269   10.7014 N   0  0  0  0  0  0  0  0  0  0  0  0
   -8.2658  -17.3702   11.3332 C   0  0  0  0  0  0  0  0  0  0  0  0
   -9.4607  -17.3509   11.5577 O   0  0  0  0  0  0  0  0  0  0  0  0
   -7.4194  -16.2393   11.7504 C   0  0  0  0  0  0  0  0  0  0  0  0
   -7.9874  -14.9658   11.9647 C   0  0  0  0  0  0  0  0  0  0  0  0
   -9.2416  -14.4818   11.8723 N   0  0  0  0  0  0  0  0  0  0  0  0
   -9.2490  -13.2150   12.1790 C   0  0  0  0  0  0  0  0  0  0  0  0
   -7.9921  -12.8047   12.4906 N   0  0  0  0  0  0  0  0  0  0  0  0
   -7.1614  -13.9021   12.3624 C   0  0  0  0  0  0  0  0  0  0  0  0
   -5.8019  -14.1070   12.5409 C   0  0  0  0  0  0  0  0  0  0  0  0
   -5.2542  -15.3572   12.3275 C   0  0  0  0  0  0  0  0  0  0  0  0
   -6.0516  -16.4195   11.9414 C   0  0  0  0  0  0  0  0  0  0  0  0
  1  2  1  0
  2  3  2  0
  2  7  1  0
  3  4  1  0
  4  5  2  0
  4 20  1  0
  5  6  1  0
  6  7  2  0
  6 10  1  0
  7  8  1  0
  8  9  2  0
  9 10  1  0
 10 11  1  0
 11 12  1  0
 11 18  1  0
 12 13  1  0
 13 14  1  0
 13 16  1  0
 14 15  1  0
 16 17  1  0
 16 18  1  0
 18 19  1  0
 20 21  1  0
 21 22  2  0
 21 23  1  0
 23 24  2  0
 23 31  1  0
 24 25  1  0
 24 28  1  0
 25 26  2  0
 26 27  1  0
 27 28  1  0
 28 29  2  0
 29 30  1  0
 30 31  2  0
M  END
>  <Gold.Gold.Protein.RotatedWaterAtoms>  (397) 


>  <Gold.Id.Protein>  (397) 


>  <Gold.PLP.Chemscore.CHOScore>  (397) 
0.0000

>  <Gold.PLP.Chemscore.Hbond>  (397) 
2.6406

>  <Gold.PLP.Chemscore.Internal.Correction>  (397) 
0.4473

>  <Gold.PLP.Chemscore.Metal>  (397) 
0.0000

>  <Gold.PLP.Fitness>  (397) 
62.1044

>  <Gold.PLP.PLP>  (397) 
-54.8445

>  <Gold.PLP.ligand.clash>  (397) 
0.0000

>  <Gold.PLP.ligand.torsion>  (397) 
0.5547

>  <Gold.PLP.part.buried>  (397) 
-12.3191

>  <Gold.PLP.part.hbond>  (397) 
-4.9778

>  <Gold.PLP.part.metal>  (397) 
0.0000

>  <Gold.PLP.part.nonpolar>  (397) 
-37.9000

>  <Gold.PLP.part.repulsive>  (397) 
0.2625

>  <Gold.Protein.RotatedAtoms>  (397) 


>  <Gold.Protein.RotatedTorsions>  (397) 


>  <Gold.Protein.RotatedWaterAtoms>  (397) 


>  <Gold.Version>  (397) 
5.3.0

>  <PLP.Chemscore.CHOScore>  (397) 


>  <PLP.Chemscore.Hbond>  (397) 


>  <PLP.Chemscore.Internal.Correction>  (397) 


>  <PLP.Chemscore.Metal>  (397) 


>  <PLP.Fitness>  (397) 


>  <PLP.PLP>  (397) 


>  <PLP.ligand.clash>  (397) 


>  <PLP.ligand.torsion>  (397) 


>  <PLP.part.buried>  (397) 


>  <PLP.part.hbond>  (397) 


>  <PLP.part.metal>  (397) 


>  <PLP.part.nonpolar>  (397) 


>  <PLP.part.repulsive>  (397) 


>  <Version>  (397) 


$$$$
3397|Compound_2092|Compounds_3D_F|sdf|607|dock8|1
     RDKit          3D

 31 35  0  0  0  0  0  0  0  0999 V2000
   -9.0376  -20.5736    7.5173 O   0  0  0  0  0  0  0  0  0  0  0  0
   -9.2605  -20.0425    8.7436 C   0  0  0  0  0  0  0  0  0  0  0  0
   -8.6417  -18.9321    9.1223 N   0  0  0  0  0  0  0  0  0  0  0  0
   -8.8535  -18.4032   10.3205 C   0  0  0  0  0  0  0  0  0  0  0  0
   -9.6825  -18.9471   11.1953 N   0  0  0  0  0  0  0  0  0  0  0  0
  -10.3426  -20.0607   10.8982 C   0  0  0  0  0  0  0  0  0  0  0  0
  -10.1537  -20.6524    9.6380 C   0  0  0  0  0  0  0  0  0  0  0  0
  -10.9347  -21.7593    9.5956 N   0  0  0  0  0  0  0  0  0  0  0  0
  -11.5753  -21.8812   10.7214 C   0  0  0  0  0  0  0  0  0  0  0  0
  -11.2470  -20.8545   11.5579 N   0  0  0  0  0  0  0  0  0  0  0  0
  -11.7596  -20.6426   12.9136 C   0  0  0  0  0  0  0  0  0  0  0  0
  -11.3038  -21.6943   13.7932 O   0  0  0  0  0  0  0  0  0  0  0  0
  -12.2227  -21.6826   14.9069 C   0  0  0  0  0  0  0  0  0  0  0  0
  -12.1845  -23.0240   15.6430 C   0  0  0  0  0  0  0  0  0  0  0  0
  -10.8988  -23.2032   16.2409 O   0  0  0  0  0  0  0  0  0  0  0  0
  -13.6122  -21.4551   14.2712 C   0  0  0  0  0  0  0  0  0  0  0  0
  -14.4121  -20.6132   15.1042 O   0  0  0  0  0  0  0  0  0  0  0  0
  -13.2998  -20.7518   12.9290 C   0  0  0  0  0  0  0  0  0  0  0  0
  -13.8987  -19.4550   12.8923 O   0  0  0  0  0  0  0  0  0  0  0  0
   -8.1803  -17.2388   10.6684 N   0  0  0  0  0  0  0  0  0  0  0  0
   -8.7913  -16.3089   11.4300 C   0  0  0  0  0  0  0  0  0  0  0  0
   -9.9316  -16.4897   11.8113 O   0  0  0  0  0  0  0  0  0  0  0  0
   -8.0779  -15.0743   11.7992 C   0  0  0  0  0  0  0  0  0  0  0  0
   -6.6810  -15.0909   11.9964 C   0  0  0  0  0  0  0  0  0  0  0  0
   -5.7449  -16.0571   11.9217 N   0  0  0  0  0  0  0  0  0  0  0  0
   -4.5730  -15.5579   12.1981 C   0  0  0  0  0  0  0  0  0  0  0  0
   -4.6847  -14.2313   12.4679 N   0  0  0  0  0  0  0  0  0  0  0  0
   -6.0217  -13.9018   12.3477 C   0  0  0  0  0  0  0  0  0  0  0  0
   -6.7412  -12.7264   12.4981 C   0  0  0  0  0  0  0  0  0  0  0  0
   -8.1090  -12.7200   12.3043 C   0  0  0  0  0  0  0  0  0  0  0  0
   -8.7765  -13.8791   11.9519 C   0  0  0  0  0  0  0  0  0  0  0  0
  1  2  1  0
  2  3  2  0
  2  7  1  0
  3  4  1  0
  4  5  2  0
  4 20  1  0
  5  6  1  0
  6  7  2  0
  6 10  1  0
  7  8  1  0
  8  9  2  0
  9 10  1  0
 10 11  1  0
 11 12  1  0
 11 18  1  0
 12 13  1  0
 13 14  1  0
 13 16  1  0
 14 15  1  0
 16 17  1  0
 16 18  1  0
 18 19  1  0
 20 21  1  0
 21 22  2  0
 21 23  1  0
 23 24  2  0
 23 31  1  0
 24 25  1  0
 24 28  1  0
 25 26  2  0
 26 27  1  0
 27 28  1  0
 28 29  2  0
 29 30  1  0
 30 31  2  0
M  END
>  <Gold.Gold.Protein.RotatedWaterAtoms>  (398) 


>  <Gold.Id.Protein>  (398) 


>  <Gold.PLP.Chemscore.CHOScore>  (398) 
0.0000

>  <Gold.PLP.Chemscore.Hbond>  (398) 
2.8440

>  <Gold.PLP.Chemscore.Internal.Correction>  (398) 
0.4473

>  <Gold.PLP.Chemscore.Metal>  (398) 
0.0000

>  <Gold.PLP.Fitness>  (398) 
66.3837

>  <Gold.PLP.PLP>  (398) 
-59.1072

>  <Gold.PLP.ligand.clash>  (398) 
0.0000

>  <Gold.PLP.ligand.torsion>  (398) 
0.8514

>  <Gold.PLP.part.buried>  (398) 
-10.5693

>  <Gold.PLP.part.hbond>  (398) 
-6.9364

>  <Gold.PLP.part.metal>  (398) 
0.0000

>  <Gold.PLP.part.nonpolar>  (398) 
-41.2442

>  <Gold.PLP.part.repulsive>  (398) 
0.2689

>  <Gold.Protein.RotatedAtoms>  (398) 


>  <Gold.Protein.RotatedTorsions>  (398) 


>  <Gold.Protein.RotatedWaterAtoms>  (398) 


>  <Gold.Version>  (398) 
5.3.0

>  <PLP.Chemscore.CHOScore>  (398) 


>  <PLP.Chemscore.Hbond>  (398) 


>  <PLP.Chemscore.Internal.Correction>  (398) 


>  <PLP.Chemscore.Metal>  (398) 


>  <PLP.Fitness>  (398) 


>  <PLP.PLP>  (398) 


>  <PLP.ligand.clash>  (398) 


>  <PLP.ligand.torsion>  (398) 


>  <PLP.part.buried>  (398) 


>  <PLP.part.hbond>  (398) 


>  <PLP.part.metal>  (398) 


>  <PLP.part.nonpolar>  (398) 


>  <PLP.part.repulsive>  (398) 


>  <Version>  (398) 


$$$$
3398|Compound_2092|Compounds_3D_F|sdf|607|dock9|1
     RDKit          3D

 31 35  0  0  0  0  0  0  0  0999 V2000
   -8.5982  -19.7133    7.7648 O   0  0  0  0  0  0  0  0  0  0  0  0
   -9.0979  -19.1992    8.9144 C   0  0  0  0  0  0  0  0  0  0  0  0
   -8.9474  -17.9130    9.2016 N   0  0  0  0  0  0  0  0  0  0  0  0
   -9.4335  -17.3993   10.3242 C   0  0  0  0  0  0  0  0  0  0  0  0
  -10.0868  -18.1317   11.2103 N   0  0  0  0  0  0  0  0  0  0  0  0
  -10.2816  -19.4290   11.0024 C   0  0  0  0  0  0  0  0  0  0  0  0
   -9.7893  -20.0144    9.8239 C   0  0  0  0  0  0  0  0  0  0  0  0
  -10.1206  -21.3281    9.8622 N   0  0  0  0  0  0  0  0  0  0  0  0
  -10.7692  -21.5797   10.9616 C   0  0  0  0  0  0  0  0  0  0  0  0
  -10.8983  -20.4384   11.6981 N   0  0  0  0  0  0  0  0  0  0  0  0
  -11.5655  -20.3147   12.9962 C   0  0  0  0  0  0  0  0  0  0  0  0
  -10.9499  -21.1940   13.9633 O   0  0  0  0  0  0  0  0  0  0  0  0
  -11.9401  -21.3716   14.9992 C   0  0  0  0  0  0  0  0  0  0  0  0
  -11.6454  -22.6384   15.8060 C   0  0  0  0  0  0  0  0  0  0  0  0
  -10.3199  -23.0890   15.5187 O   0  0  0  0  0  0  0  0  0  0  0  0
  -13.2811  -21.5115   14.2451 C   0  0  0  0  0  0  0  0  0  0  0  0
  -14.3313  -20.8645   14.9669 O   0  0  0  0  0  0  0  0  0  0  0  0
  -13.0291  -20.7969   12.8963 C   0  0  0  0  0  0  0  0  0  0  0  0
  -13.9171  -19.6879   12.7439 O   0  0  0  0  0  0  0  0  0  0  0  0
   -9.2489  -16.0459   10.5777 N   0  0  0  0  0  0  0  0  0  0  0  0
   -8.1352  -15.6244   11.2102 C   0  0  0  0  0  0  0  0  0  0  0  0
   -7.2933  -16.4293   11.5591 O   0  0  0  0  0  0  0  0  0  0  0  0
   -7.9390  -14.1896   11.4791 C   0  0  0  0  0  0  0  0  0  0  0  0
   -6.7700  -13.7402   12.1287 C   0  0  0  0  0  0  0  0  0  0  0  0
   -5.6786  -14.3653   12.6119 N   0  0  0  0  0  0  0  0  0  0  0  0
   -4.8633  -13.4908   13.1311 C   0  0  0  0  0  0  0  0  0  0  0  0
   -5.3837  -12.2418   13.0115 N   0  0  0  0  0  0  0  0  0  0  0  0
   -6.6040  -12.3676   12.3746 C   0  0  0  0  0  0  0  0  0  0  0  0
   -7.5823  -11.4677   11.9809 C   0  0  0  0  0  0  0  0  0  0  0  0
   -8.7243  -11.9170   11.3465 C   0  0  0  0  0  0  0  0  0  0  0  0
   -8.9043  -13.2641   11.0895 C   0  0  0  0  0  0  0  0  0  0  0  0
  1  2  1  0
  2  3  2  0
  2  7  1  0
  3  4  1  0
  4  5  2  0
  4 20  1  0
  5  6  1  0
  6  7  2  0
  6 10  1  0
  7  8  1  0
  8  9  2  0
  9 10  1  0
 10 11  1  0
 11 12  1  0
 11 18  1  0
 12 13  1  0
 13 14  1  0
 13 16  1  0
 14 15  1  0
 16 17  1  0
 16 18  1  0
 18 19  1  0
 20 21  1  0
 21 22  2  0
 21 23  1  0
 23 24  2  0
 23 31  1  0
 24 25  1  0
 24 28  1  0
 25 26  2  0
 26 27  1  0
 27 28  1  0
 28 29  2  0
 29 30  1  0
 30 31  2  0
M  END
>  <Gold.Gold.Protein.RotatedWaterAtoms>  (399) 


>  <Gold.Id.Protein>  (399) 


>  <Gold.PLP.Chemscore.CHOScore>  (399) 
0.9620

>  <Gold.PLP.Chemscore.Hbond>  (399) 
4.0442

>  <Gold.PLP.Chemscore.Internal.Correction>  (399) 
0.4473

>  <Gold.PLP.Chemscore.Metal>  (399) 
0.0000

>  <Gold.PLP.Fitness>  (399) 
70.0280

>  <Gold.PLP.PLP>  (399) 
-57.4438

>  <Gold.PLP.ligand.clash>  (399) 
0.0000

>  <Gold.PLP.ligand.torsion>  (399) 
1.4410

>  <Gold.PLP.part.buried>  (399) 
-7.5045

>  <Gold.PLP.part.hbond>  (399) 
-6.8255

>  <Gold.PLP.part.metal>  (399) 
0.0000

>  <Gold.PLP.part.nonpolar>  (399) 
-43.7606

>  <Gold.PLP.part.repulsive>  (399) 
0.3800

>  <Gold.Protein.RotatedAtoms>  (399) 


>  <Gold.Protein.RotatedTorsions>  (399) 


>  <Gold.Protein.RotatedWaterAtoms>  (399) 


>  <Gold.Version>  (399) 
5.3.0

>  <PLP.Chemscore.CHOScore>  (399) 


>  <PLP.Chemscore.Hbond>  (399) 


>  <PLP.Chemscore.Internal.Correction>  (399) 


>  <PLP.Chemscore.Metal>  (399) 


>  <PLP.Fitness>  (399) 


>  <PLP.PLP>  (399) 


>  <PLP.ligand.clash>  (399) 


>  <PLP.ligand.torsion>  (399) 


>  <PLP.part.buried>  (399) 


>  <PLP.part.hbond>  (399) 


>  <PLP.part.metal>  (399) 


>  <PLP.part.nonpolar>  (399) 


>  <PLP.part.repulsive>  (399) 


>  <Version>  (399) 


$$$$
3399|Compound_2097|Compounds_3D_F|sdf|608|dock1|1
     RDKit          3D

 18 19  0  0  0  0  0  0  0  0999 V2000
   -7.5829  -16.3079   11.5166 N   0  0  0  0  0  0  0  0  0  0  0  0
   -7.8827  -15.0375   11.8532 C   0  0  0  0  0  0  0  0  0  0  0  0
   -9.0432  -14.7011   11.9817 O   0  0  0  0  0  0  0  0  0  0  0  0
   -6.8008  -14.0560   12.0658 C   0  0  0  0  0  0  0  0  0  0  0  0
   -5.5058  -14.2769   11.9502 N   0  0  0  0  0  0  0  0  0  0  0  0
   -4.8501  -13.2018   12.2054 N   0  0  0  0  0  0  0  0  0  0  0  0
   -5.7007  -12.1979   12.5093 C   0  0  0  0  0  0  0  0  0  0  0  0
   -6.9558  -12.6957   12.4265 C   0  0  0  0  0  0  0  0  0  0  0  0
   -8.5978  -17.2282   11.3122 C   0  0  0  0  0  0  0  0  0  0  0  0
   -9.8364  -17.0903   11.7046 N   0  0  0  0  0  0  0  0  0  0  0  0
  -10.5334  -18.1966   11.3225 C   0  0  0  0  0  0  0  0  0  0  0  0
   -9.6614  -19.0188   10.6777 C   0  0  0  0  0  0  0  0  0  0  0  0
   -8.4664  -18.4028   10.6746 O   0  0  0  0  0  0  0  0  0  0  0  0
  -11.9635  -18.4549   11.5627 C   0  0  0  0  0  0  0  0  0  0  0  0
  -12.5243  -17.9349   12.5071 O   0  0  0  0  0  0  0  0  0  0  0  0
  -12.6496  -19.2671   10.7349 O   0  0  0  0  0  0  0  0  0  0  0  0
  -14.0843  -19.3576   10.9397 C   0  0  0  0  0  0  0  0  0  0  0  0
  -14.7579  -19.8071    9.6421 C   0  0  0  0  0  0  0  0  0  0  0  0
  1  2  1  0
  1  9  1  0
  2  3  2  0
  2  4  1  0
  4  5  2  0
  4  8  1  0
  5  6  1  0
  6  7  1  0
  7  8  2  0
  9 10  2  0
  9 13  1  0
 10 11  1  0
 11 12  2  0
 11 14  1  0
 12 13  1  0
 14 15  2  0
 14 16  1  0
 16 17  1  0
 17 18  1  0
M  END
>  <Gold.Gold.Protein.RotatedWaterAtoms>  (400) 


>  <Gold.Id.Protein>  (400) 


>  <Gold.PLP.Chemscore.CHOScore>  (400) 
0.2168

>  <Gold.PLP.Chemscore.Hbond>  (400) 
2.6728

>  <Gold.PLP.Chemscore.Internal.Correction>  (400) 
0.0884

>  <Gold.PLP.Chemscore.Metal>  (400) 
0.0000

>  <Gold.PLP.Fitness>  (400) 
49.6859

>  <Gold.PLP.PLP>  (400) 
-41.9750

>  <Gold.PLP.ligand.clash>  (400) 
0.0000

>  <Gold.PLP.ligand.torsion>  (400) 
0.5231

>  <Gold.PLP.part.buried>  (400) 
-8.6629

>  <Gold.PLP.part.hbond>  (400) 
-5.3424

>  <Gold.PLP.part.metal>  (400) 
0.0000

>  <Gold.PLP.part.nonpolar>  (400) 
-28.4795

>  <Gold.PLP.part.repulsive>  (400) 
0.6517

>  <Gold.Protein.RotatedAtoms>  (400) 


>  <Gold.Protein.RotatedTorsions>  (400) 


>  <Gold.Protein.RotatedWaterAtoms>  (400) 


>  <Gold.Version>  (400) 
5.3.0

>  <PLP.Chemscore.CHOScore>  (400) 


>  <PLP.Chemscore.Hbond>  (400) 


>  <PLP.Chemscore.Internal.Correction>  (400) 


>  <PLP.Chemscore.Metal>  (400) 


>  <PLP.Fitness>  (400) 


>  <PLP.PLP>  (400) 


>  <PLP.ligand.clash>  (400) 


>  <PLP.ligand.torsion>  (400) 


>  <PLP.part.buried>  (400) 


>  <PLP.part.hbond>  (400) 


>  <PLP.part.metal>  (400) 


>  <PLP.part.nonpolar>  (400) 


>  <PLP.part.repulsive>  (400) 


>  <Version>  (400) 


$$$$
3400|Compound_2097|Compounds_3D_F|sdf|608|dock2|1
     RDKit          3D

 18 19  0  0  0  0  0  0  0  0999 V2000
   -7.5236  -16.3490   11.6930 N   0  0  0  0  0  0  0  0  0  0  0  0
   -7.8359  -15.0540   11.8992 C   0  0  0  0  0  0  0  0  0  0  0  0
   -8.9999  -14.7053   11.9163 O   0  0  0  0  0  0  0  0  0  0  0  0
   -6.7637  -14.0604   12.1042 C   0  0  0  0  0  0  0  0  0  0  0  0
   -5.4668  -14.2685   11.9861 N   0  0  0  0  0  0  0  0  0  0  0  0
   -4.8216  -13.1855   12.2346 N   0  0  0  0  0  0  0  0  0  0  0  0
   -5.6817  -12.1889   12.5361 C   0  0  0  0  0  0  0  0  0  0  0  0
   -6.9318  -12.7001   12.4590 C   0  0  0  0  0  0  0  0  0  0  0  0
   -8.5291  -17.2811   11.4957 C   0  0  0  0  0  0  0  0  0  0  0  0
   -9.7954  -17.0976   11.7605 N   0  0  0  0  0  0  0  0  0  0  0  0
  -10.4711  -18.2346   11.4344 C   0  0  0  0  0  0  0  0  0  0  0  0
   -9.5573  -19.1233   10.9577 C   0  0  0  0  0  0  0  0  0  0  0  0
   -8.3583  -18.5162   10.9969 O   0  0  0  0  0  0  0  0  0  0  0  0
  -11.9201  -18.4602   11.5724 C   0  0  0  0  0  0  0  0  0  0  0  0
  -12.5244  -17.9725   12.5073 O   0  0  0  0  0  0  0  0  0  0  0  0
  -12.5753  -19.2067   10.6620 O   0  0  0  0  0  0  0  0  0  0  0  0
  -13.9701  -18.8809   10.4228 C   0  0  0  0  0  0  0  0  0  0  0  0
  -14.5216  -19.7796    9.3148 C   0  0  0  0  0  0  0  0  0  0  0  0
  1  2  1  0
  1  9  1  0
  2  3  2  0
  2  4  1  0
  4  5  2  0
  4  8  1  0
  5  6  1  0
  6  7  1  0
  7  8  2  0
  9 10  2  0
  9 13  1  0
 10 11  1  0
 11 12  2  0
 11 14  1  0
 12 13  1  0
 14 15  2  0
 14 16  1  0
 16 17  1  0
 17 18  1  0
M  END
>  <Gold.Gold.Protein.RotatedWaterAtoms>  (401) 


>  <Gold.Id.Protein>  (401) 


>  <Gold.PLP.Chemscore.CHOScore>  (401) 
0.2740

>  <Gold.PLP.Chemscore.Hbond>  (401) 
2.6591

>  <Gold.PLP.Chemscore.Internal.Correction>  (401) 
0.0259

>  <Gold.PLP.Chemscore.Metal>  (401) 
0.0000

>  <Gold.PLP.Fitness>  (401) 
49.9242

>  <Gold.PLP.PLP>  (401) 
-43.0053

>  <Gold.PLP.ligand.clash>  (401) 
0.0000

>  <Gold.PLP.ligand.torsion>  (401) 
0.9531

>  <Gold.PLP.part.buried>  (401) 
-9.7295

>  <Gold.PLP.part.hbond>  (401) 
-5.1978

>  <Gold.PLP.part.metal>  (401) 
0.0000

>  <Gold.PLP.part.nonpolar>  (401) 
-29.2281

>  <Gold.PLP.part.repulsive>  (401) 
0.6619

>  <Gold.Protein.RotatedAtoms>  (401) 


>  <Gold.Protein.RotatedTorsions>  (401) 


>  <Gold.Protein.RotatedWaterAtoms>  (401) 


>  <Gold.Version>  (401) 
5.3.0

>  <PLP.Chemscore.CHOScore>  (401) 


>  <PLP.Chemscore.Hbond>  (401) 


>  <PLP.Chemscore.Internal.Correction>  (401) 


>  <PLP.Chemscore.Metal>  (401) 


>  <PLP.Fitness>  (401) 


>  <PLP.PLP>  (401) 


>  <PLP.ligand.clash>  (401) 


>  <PLP.ligand.torsion>  (401) 


>  <PLP.part.buried>  (401) 


>  <PLP.part.hbond>  (401) 


>  <PLP.part.metal>  (401) 


>  <PLP.part.nonpolar>  (401) 


>  <PLP.part.repulsive>  (401) 


>  <Version>  (401) 


$$$$
3401|Compound_2097|Compounds_3D_F|sdf|608|dock3|1
     RDKit          3D

 18 19  0  0  0  0  0  0  0  0999 V2000
   -7.5105  -16.3435   11.7633 N   0  0  0  0  0  0  0  0  0  0  0  0
   -7.8024  -15.0391   11.9377 C   0  0  0  0  0  0  0  0  0  0  0  0
   -8.9594  -14.6682   11.9208 O   0  0  0  0  0  0  0  0  0  0  0  0
   -6.7161  -14.0622   12.1491 C   0  0  0  0  0  0  0  0  0  0  0  0
   -5.4208  -14.3050   12.1005 N   0  0  0  0  0  0  0  0  0  0  0  0
   -4.7607  -13.2272   12.3316 N   0  0  0  0  0  0  0  0  0  0  0  0
   -5.6085  -12.1987   12.5495 C   0  0  0  0  0  0  0  0  0  0  0  0
   -6.8661  -12.6840   12.4366 C   0  0  0  0  0  0  0  0  0  0  0  0
   -8.5291  -17.2600   11.5599 C   0  0  0  0  0  0  0  0  0  0  0  0
   -9.7854  -17.0783   11.8699 N   0  0  0  0  0  0  0  0  0  0  0  0
  -10.4799  -18.1967   11.5199 C   0  0  0  0  0  0  0  0  0  0  0  0
   -9.5880  -19.0722   10.9813 C   0  0  0  0  0  0  0  0  0  0  0  0
   -8.3834  -18.4756   11.0081 O   0  0  0  0  0  0  0  0  0  0  0  0
  -11.9259  -18.4174   11.6926 C   0  0  0  0  0  0  0  0  0  0  0  0
  -12.5431  -17.7778   12.5213 O   0  0  0  0  0  0  0  0  0  0  0  0
  -12.5639  -19.3280   10.9316 O   0  0  0  0  0  0  0  0  0  0  0  0
  -13.9622  -19.0744   10.6331 C   0  0  0  0  0  0  0  0  0  0  0  0
  -14.2035  -19.2468    9.1326 C   0  0  0  0  0  0  0  0  0  0  0  0
  1  2  1  0
  1  9  1  0
  2  3  2  0
  2  4  1  0
  4  5  2  0
  4  8  1  0
  5  6  1  0
  6  7  1  0
  7  8  2  0
  9 10  2  0
  9 13  1  0
 10 11  1  0
 11 12  2  0
 11 14  1  0
 12 13  1  0
 14 15  2  0
 14 16  1  0
 16 17  1  0
 17 18  1  0
M  END
>  <Gold.Gold.Protein.RotatedWaterAtoms>  (402) 


>  <Gold.Id.Protein>  (402) 


>  <Gold.PLP.Chemscore.CHOScore>  (402) 
0.3944

>  <Gold.PLP.Chemscore.Hbond>  (402) 
2.5395

>  <Gold.PLP.Chemscore.Internal.Correction>  (402) 
0.0259

>  <Gold.PLP.Chemscore.Metal>  (402) 
0.0000

>  <Gold.PLP.Fitness>  (402) 
49.5003

>  <Gold.PLP.PLP>  (402) 
-42.7398

>  <Gold.PLP.ligand.clash>  (402) 
0.0000

>  <Gold.PLP.ligand.torsion>  (402) 
1.0334

>  <Gold.PLP.part.buried>  (402) 
-8.9788

>  <Gold.PLP.part.hbond>  (402) 
-5.4767

>  <Gold.PLP.part.metal>  (402) 
0.0000

>  <Gold.PLP.part.nonpolar>  (402) 
-30.0017

>  <Gold.PLP.part.repulsive>  (402) 
0.6984

>  <Gold.Protein.RotatedAtoms>  (402) 


>  <Gold.Protein.RotatedTorsions>  (402) 


>  <Gold.Protein.RotatedWaterAtoms>  (402) 


>  <Gold.Version>  (402) 
5.3.0

>  <PLP.Chemscore.CHOScore>  (402) 


>  <PLP.Chemscore.Hbond>  (402) 


>  <PLP.Chemscore.Internal.Correction>  (402) 


>  <PLP.Chemscore.Metal>  (402) 


>  <PLP.Fitness>  (402) 


>  <PLP.PLP>  (402) 


>  <PLP.ligand.clash>  (402) 


>  <PLP.ligand.torsion>  (402) 


>  <PLP.part.buried>  (402) 


>  <PLP.part.hbond>  (402) 


>  <PLP.part.metal>  (402) 


>  <PLP.part.nonpolar>  (402) 


>  <PLP.part.repulsive>  (402) 


>  <Version>  (402) 


$$$$
3402|Compound_2098|Compounds_3D_F|sdf|609|dock1|1
     RDKit          3D

 17 18  0  0  0  0  0  0  0  0999 V2000
   -8.0078  -15.8846   12.1041 N   0  0  0  0  0  0  0  0  0  0  0  0
   -8.1092  -14.5437   12.1969 C   0  0  0  0  0  0  0  0  0  0  0  0
   -9.2043  -14.0180   12.2248 O   0  0  0  0  0  0  0  0  0  0  0  0
   -6.8891  -13.7139   12.2648 C   0  0  0  0  0  0  0  0  0  0  0  0
   -5.6488  -14.1273   12.0926 N   0  0  0  0  0  0  0  0  0  0  0  0
   -4.8344  -13.1418   12.2200 N   0  0  0  0  0  0  0  0  0  0  0  0
   -5.5145  -12.0065   12.4891 C   0  0  0  0  0  0  0  0  0  0  0  0
   -6.8291  -12.3236   12.5207 C   0  0  0  0  0  0  0  0  0  0  0  0
   -9.1589  -16.6680   12.0349 C   0  0  0  0  0  0  0  0  0  0  0  0
  -10.3631  -16.3292   12.4130 N   0  0  0  0  0  0  0  0  0  0  0  0
  -11.1538  -17.2249   12.2265 O   0  0  0  0  0  0  0  0  0  0  0  0
  -10.5665  -18.3031   11.6886 C   0  0  0  0  0  0  0  0  0  0  0  0
   -9.2592  -17.9939   11.5343 C   0  0  0  0  0  0  0  0  0  0  0  0
  -11.2342  -19.6032   11.3198 C   0  0  0  0  0  0  0  0  0  0  0  0
  -11.8951  -20.2064   12.5619 C   0  0  0  0  0  0  0  0  0  0  0  0
  -12.2976  -19.3443   10.2508 C   0  0  0  0  0  0  0  0  0  0  0  0
  -10.1880  -20.5777   10.7749 C   0  0  0  0  0  0  0  0  0  0  0  0
  1  2  1  0
  1  9  1  0
  2  3  2  0
  2  4  1  0
  4  5  2  0
  4  8  1  0
  5  6  1  0
  6  7  1  0
  7  8  2  0
  9 10  2  0
  9 13  1  0
 10 11  1  0
 11 12  1  0
 12 13  2  0
 12 14  1  0
 14 15  1  0
 14 16  1  0
 14 17  1  0
M  END
>  <Gold.Gold.Protein.RotatedWaterAtoms>  (403) 


>  <Gold.Id.Protein>  (403) 


>  <Gold.PLP.Chemscore.CHOScore>  (403) 
0.7294

>  <Gold.PLP.Chemscore.Hbond>  (403) 
2.2622

>  <Gold.PLP.Chemscore.Internal.Correction>  (403) 
0.0075

>  <Gold.PLP.Chemscore.Metal>  (403) 
0.0000

>  <Gold.PLP.Fitness>  (403) 
49.0219

>  <Gold.PLP.PLP>  (403) 
-40.3049

>  <Gold.PLP.ligand.clash>  (403) 
0.0000

>  <Gold.PLP.ligand.torsion>  (403) 
0.1327

>  <Gold.PLP.part.buried>  (403) 
-8.3107

>  <Gold.PLP.part.hbond>  (403) 
-4.8575

>  <Gold.PLP.part.metal>  (403) 
0.0000

>  <Gold.PLP.part.nonpolar>  (403) 
-27.9364

>  <Gold.PLP.part.repulsive>  (403) 
0.6579

>  <Gold.Protein.RotatedAtoms>  (403) 


>  <Gold.Protein.RotatedTorsions>  (403) 


>  <Gold.Protein.RotatedWaterAtoms>  (403) 


>  <Gold.Version>  (403) 
5.3.0

>  <PLP.Chemscore.CHOScore>  (403) 


>  <PLP.Chemscore.Hbond>  (403) 


>  <PLP.Chemscore.Internal.Correction>  (403) 


>  <PLP.Chemscore.Metal>  (403) 


>  <PLP.Fitness>  (403) 


>  <PLP.PLP>  (403) 


>  <PLP.ligand.clash>  (403) 


>  <PLP.ligand.torsion>  (403) 


>  <PLP.part.buried>  (403) 


>  <PLP.part.hbond>  (403) 


>  <PLP.part.metal>  (403) 


>  <PLP.part.nonpolar>  (403) 


>  <PLP.part.repulsive>  (403) 


>  <Version>  (403) 


$$$$
3403|Compound_2098|Compounds_3D_F|sdf|609|dock2|1
     RDKit          3D

 17 18  0  0  0  0  0  0  0  0999 V2000
   -7.9865  -16.0198   12.1316 N   0  0  0  0  0  0  0  0  0  0  0  0
   -8.0586  -14.6755   12.2011 C   0  0  0  0  0  0  0  0  0  0  0  0
   -9.1419  -14.1251   12.2110 O   0  0  0  0  0  0  0  0  0  0  0  0
   -6.8209  -13.8720   12.2652 C   0  0  0  0  0  0  0  0  0  0  0  0
   -5.5908  -14.3104   12.0820 N   0  0  0  0  0  0  0  0  0  0  0  0
   -4.7549  -13.3430   12.2092 N   0  0  0  0  0  0  0  0  0  0  0  0
   -5.4090  -12.1953   12.4896 C   0  0  0  0  0  0  0  0  0  0  0  0
   -6.7298  -12.4848   12.5285 C   0  0  0  0  0  0  0  0  0  0  0  0
   -9.1543  -16.7784   12.0660 C   0  0  0  0  0  0  0  0  0  0  0  0
  -10.3510  -16.4117   12.4419 N   0  0  0  0  0  0  0  0  0  0  0  0
  -11.1608  -17.2910   12.2597 O   0  0  0  0  0  0  0  0  0  0  0  0
  -10.5968  -18.3843   11.7275 C   0  0  0  0  0  0  0  0  0  0  0  0
   -9.2832  -18.1043   11.5720 C   0  0  0  0  0  0  0  0  0  0  0  0
  -11.2924  -19.6716   11.3650 C   0  0  0  0  0  0  0  0  0  0  0  0
  -11.1667  -19.9115    9.8584 C   0  0  0  0  0  0  0  0  0  0  0  0
  -10.6436  -20.8319   12.1223 C   0  0  0  0  0  0  0  0  0  0  0  0
  -12.7716  -19.5768   11.7445 C   0  0  0  0  0  0  0  0  0  0  0  0
  1  2  1  0
  1  9  1  0
  2  3  2  0
  2  4  1  0
  4  5  2  0
  4  8  1  0
  5  6  1  0
  6  7  1  0
  7  8  2  0
  9 10  2  0
  9 13  1  0
 10 11  1  0
 11 12  1  0
 12 13  2  0
 12 14  1  0
 14 15  1  0
 14 16  1  0
 14 17  1  0
M  END
>  <Gold.Gold.Protein.RotatedWaterAtoms>  (404) 


>  <Gold.Id.Protein>  (404) 


>  <Gold.PLP.Chemscore.CHOScore>  (404) 
0.7477

>  <Gold.PLP.Chemscore.Hbond>  (404) 
2.3497

>  <Gold.PLP.Chemscore.Internal.Correction>  (404) 
0.0038

>  <Gold.PLP.Chemscore.Metal>  (404) 
0.0000

>  <Gold.PLP.Fitness>  (404) 
49.0437

>  <Gold.PLP.PLP>  (404) 
-40.0580

>  <Gold.PLP.ligand.clash>  (404) 
0.0000

>  <Gold.PLP.ligand.torsion>  (404) 
0.1551

>  <Gold.PLP.part.buried>  (404) 
-9.3051

>  <Gold.PLP.part.hbond>  (404) 
-5.5424

>  <Gold.PLP.part.metal>  (404) 
0.0000

>  <Gold.PLP.part.nonpolar>  (404) 
-27.2581

>  <Gold.PLP.part.repulsive>  (404) 
0.6761

>  <Gold.Protein.RotatedAtoms>  (404) 


>  <Gold.Protein.RotatedTorsions>  (404) 


>  <Gold.Protein.RotatedWaterAtoms>  (404) 


>  <Gold.Version>  (404) 
5.3.0

>  <PLP.Chemscore.CHOScore>  (404) 


>  <PLP.Chemscore.Hbond>  (404) 


>  <PLP.Chemscore.Internal.Correction>  (404) 


>  <PLP.Chemscore.Metal>  (404) 


>  <PLP.Fitness>  (404) 


>  <PLP.PLP>  (404) 


>  <PLP.ligand.clash>  (404) 


>  <PLP.ligand.torsion>  (404) 


>  <PLP.part.buried>  (404) 


>  <PLP.part.hbond>  (404) 


>  <PLP.part.metal>  (404) 


>  <PLP.part.nonpolar>  (404) 


>  <PLP.part.repulsive>  (404) 


>  <Version>  (404) 


$$$$
3404|Compound_2098|Compounds_3D_F|sdf|609|dock3|1
     RDKit          3D

 17 18  0  0  0  0  0  0  0  0999 V2000
   -8.2032  -15.9356   12.1660 N   0  0  0  0  0  0  0  0  0  0  0  0
   -8.2417  -14.5882   12.1502 C   0  0  0  0  0  0  0  0  0  0  0  0
   -9.3084  -14.0121   12.0681 O   0  0  0  0  0  0  0  0  0  0  0  0
   -6.9874  -13.8127   12.2327 C   0  0  0  0  0  0  0  0  0  0  0  0
   -5.7661  -14.2747   12.0489 N   0  0  0  0  0  0  0  0  0  0  0  0
   -4.9102  -13.3277   12.1951 N   0  0  0  0  0  0  0  0  0  0  0  0
   -5.5410  -12.1704   12.4897 C   0  0  0  0  0  0  0  0  0  0  0  0
   -6.8679  -12.4320   12.5176 C   0  0  0  0  0  0  0  0  0  0  0  0
   -9.3864  -16.6682   12.0830 C   0  0  0  0  0  0  0  0  0  0  0  0
  -10.5611  -16.3164   12.5350 N   0  0  0  0  0  0  0  0  0  0  0  0
  -11.3932  -17.1648   12.3118 O   0  0  0  0  0  0  0  0  0  0  0  0
  -10.8701  -18.2178   11.6682 C   0  0  0  0  0  0  0  0  0  0  0  0
   -9.5583  -17.9456   11.4852 C   0  0  0  0  0  0  0  0  0  0  0  0
  -11.6025  -19.4591   11.2268 C   0  0  0  0  0  0  0  0  0  0  0  0
  -13.0696  -19.3634   11.6535 C   0  0  0  0  0  0  0  0  0  0  0  0
  -11.5210  -19.5844    9.7042 C   0  0  0  0  0  0  0  0  0  0  0  0
  -10.9619  -20.6877   11.8760 C   0  0  0  0  0  0  0  0  0  0  0  0
  1  2  1  0
  1  9  1  0
  2  3  2  0
  2  4  1  0
  4  5  2  0
  4  8  1  0
  5  6  1  0
  6  7  1  0
  7  8  2  0
  9 10  2  0
  9 13  1  0
 10 11  1  0
 11 12  1  0
 12 13  2  0
 12 14  1  0
 14 15  1  0
 14 16  1  0
 14 17  1  0
M  END
>  <Gold.Gold.Protein.RotatedWaterAtoms>  (405) 


>  <Gold.Id.Protein>  (405) 


>  <Gold.PLP.Chemscore.CHOScore>  (405) 
0.6205

>  <Gold.PLP.Chemscore.Hbond>  (405) 
2.4252

>  <Gold.PLP.Chemscore.Internal.Correction>  (405) 
0.0010

>  <Gold.PLP.Chemscore.Metal>  (405) 
0.0000

>  <Gold.PLP.Fitness>  (405) 
48.6868

>  <Gold.PLP.PLP>  (405) 
-40.1588

>  <Gold.PLP.ligand.clash>  (405) 
0.0000

>  <Gold.PLP.ligand.torsion>  (405) 
0.3052

>  <Gold.PLP.part.buried>  (405) 
-6.0256

>  <Gold.PLP.part.hbond>  (405) 
-5.8566

>  <Gold.PLP.part.metal>  (405) 
0.0000

>  <Gold.PLP.part.nonpolar>  (405) 
-27.6012

>  <Gold.PLP.part.repulsive>  (405) 
0.6695

>  <Gold.Protein.RotatedAtoms>  (405) 


>  <Gold.Protein.RotatedTorsions>  (405) 


>  <Gold.Protein.RotatedWaterAtoms>  (405) 


>  <Gold.Version>  (405) 
5.3.0

>  <PLP.Chemscore.CHOScore>  (405) 


>  <PLP.Chemscore.Hbond>  (405) 


>  <PLP.Chemscore.Internal.Correction>  (405) 


>  <PLP.Chemscore.Metal>  (405) 


>  <PLP.Fitness>  (405) 


>  <PLP.PLP>  (405) 


>  <PLP.ligand.clash>  (405) 


>  <PLP.ligand.torsion>  (405) 


>  <PLP.part.buried>  (405) 


>  <PLP.part.hbond>  (405) 


>  <PLP.part.metal>  (405) 


>  <PLP.part.nonpolar>  (405) 


>  <PLP.part.repulsive>  (405) 


>  <Version>  (405) 


$$$$
3405|Compound_2101|Compounds_3D_F|sdf|610|dock1|1
     RDKit          3D

 17 18  0  0  0  0  0  0  0  0999 V2000
   -7.8876  -15.8119   12.0723 N   0  0  0  0  0  0  0  0  0  0  0  0
   -7.9483  -14.4698   12.1823 C   0  0  0  0  0  0  0  0  0  0  0  0
   -9.0268  -13.9106   12.2065 O   0  0  0  0  0  0  0  0  0  0  0  0
   -6.7038  -13.6795   12.2735 C   0  0  0  0  0  0  0  0  0  0  0  0
   -5.4726  -14.1408   12.1729 N   0  0  0  0  0  0  0  0  0  0  0  0
   -4.6301  -13.1789   12.2994 N   0  0  0  0  0  0  0  0  0  0  0  0
   -5.2808  -12.0117   12.4947 C   0  0  0  0  0  0  0  0  0  0  0  0
   -6.6059  -12.2830   12.4792 C   0  0  0  0  0  0  0  0  0  0  0  0
   -9.0581  -16.5554   11.9814 C   0  0  0  0  0  0  0  0  0  0  0  0
  -10.2573  -16.3255   12.5001 N   0  0  0  0  0  0  0  0  0  0  0  0
  -11.2236  -17.1143   12.3163 N   0  0  0  0  0  0  0  0  0  0  0  0
  -11.1056  -18.2149   11.5994 C   0  0  0  0  0  0  0  0  0  0  0  0
   -9.3829  -18.0937   11.1237 S   0  0  0  0  0  0  0  0  0  0  0  0
  -12.1289  -19.2707   11.2699 C   0  0  0  0  0  0  0  0  0  0  0  0
  -12.3002  -19.3380    9.8833 F   0  0  0  0  0  0  0  0  0  0  0  0
  -11.6891  -20.5114   11.7464 F   0  0  0  0  0  0  0  0  0  0  0  0
  -13.3473  -18.9446   11.8754 F   0  0  0  0  0  0  0  0  0  0  0  0
  1  2  1  0
  1  9  1  0
  2  3  2  0
  2  4  1  0
  4  5  2  0
  4  8  1  0
  5  6  1  0
  6  7  1  0
  7  8  2  0
  9 10  2  0
  9 13  1  0
 10 11  1  0
 11 12  2  0
 12 13  1  0
 12 14  1  0
 14 15  1  0
 14 16  1  0
 14 17  1  0
M  END
>  <Gold.Gold.Protein.RotatedWaterAtoms>  (406) 


>  <Gold.Id.Protein>  (406) 


>  <Gold.PLP.Chemscore.CHOScore>  (406) 
1.0000

>  <Gold.PLP.Chemscore.Hbond>  (406) 
2.0905

>  <Gold.PLP.Chemscore.Internal.Correction>  (406) 
0.0002

>  <Gold.PLP.Chemscore.Metal>  (406) 
0.0000

>  <Gold.PLP.Fitness>  (406) 
48.3008

>  <Gold.PLP.PLP>  (406) 
-39.4600

>  <Gold.PLP.ligand.clash>  (406) 
0.0000

>  <Gold.PLP.ligand.torsion>  (406) 
0.2154

>  <Gold.PLP.part.buried>  (406) 
-7.1208

>  <Gold.PLP.part.hbond>  (406) 
-4.7819

>  <Gold.PLP.part.metal>  (406) 
0.0000

>  <Gold.PLP.part.nonpolar>  (406) 
-28.2543

>  <Gold.PLP.part.repulsive>  (406) 
0.7112

>  <Gold.Protein.RotatedAtoms>  (406) 


>  <Gold.Protein.RotatedTorsions>  (406) 


>  <Gold.Protein.RotatedWaterAtoms>  (406) 


>  <Gold.Version>  (406) 
5.3.0

>  <PLP.Chemscore.CHOScore>  (406) 


>  <PLP.Chemscore.Hbond>  (406) 


>  <PLP.Chemscore.Internal.Correction>  (406) 


>  <PLP.Chemscore.Metal>  (406) 


>  <PLP.Fitness>  (406) 


>  <PLP.PLP>  (406) 


>  <PLP.ligand.clash>  (406) 


>  <PLP.ligand.torsion>  (406) 


>  <PLP.part.buried>  (406) 


>  <PLP.part.hbond>  (406) 


>  <PLP.part.metal>  (406) 


>  <PLP.part.nonpolar>  (406) 


>  <PLP.part.repulsive>  (406) 


>  <Version>  (406) 


$$$$
3406|Compound_2101|Compounds_3D_F|sdf|610|dock2|1
     RDKit          3D

 17 18  0  0  0  0  0  0  0  0999 V2000
   -8.1024  -15.2235   12.0179 N   0  0  0  0  0  0  0  0  0  0  0  0
   -8.5173  -13.9496   12.1659 C   0  0  0  0  0  0  0  0  0  0  0  0
   -9.7033  -13.7051   12.2675 O   0  0  0  0  0  0  0  0  0  0  0  0
   -7.5304  -12.8514   12.2048 C   0  0  0  0  0  0  0  0  0  0  0  0
   -7.7511  -11.5874   11.9007 N   0  0  0  0  0  0  0  0  0  0  0  0
   -6.6723  -10.9047   12.0454 N   0  0  0  0  0  0  0  0  0  0  0  0
   -5.6663  -11.7046   12.4602 C   0  0  0  0  0  0  0  0  0  0  0  0
   -6.1704  -12.9540   12.5813 C   0  0  0  0  0  0  0  0  0  0  0  0
   -9.0309  -16.2566   11.9762 C   0  0  0  0  0  0  0  0  0  0  0  0
  -10.2941  -16.2851   12.3807 N   0  0  0  0  0  0  0  0  0  0  0  0
  -11.0056  -17.3198   12.2666 N   0  0  0  0  0  0  0  0  0  0  0  0
  -10.5422  -18.4365   11.7400 C   0  0  0  0  0  0  0  0  0  0  0  0
   -8.8687  -17.9280   11.3536 S   0  0  0  0  0  0  0  0  0  0  0  0
  -11.2265  -19.7611   11.5211 C   0  0  0  0  0  0  0  0  0  0  0  0
  -10.3201  -20.6676   10.9615 F   0  0  0  0  0  0  0  0  0  0  0  0
  -11.6856  -20.2571   12.7471 F   0  0  0  0  0  0  0  0  0  0  0  0
  -12.3101  -19.5886   10.6532 F   0  0  0  0  0  0  0  0  0  0  0  0
  1  2  1  0
  1  9  1  0
  2  3  2  0
  2  4  1  0
  4  5  2  0
  4  8  1  0
  5  6  1  0
  6  7  1  0
  7  8  2  0
  9 10  2  0
  9 13  1  0
 10 11  1  0
 11 12  2  0
 12 13  1  0
 12 14  1  0
 14 15  1  0
 14 16  1  0
 14 17  1  0
M  END
>  <Gold.Gold.Protein.RotatedWaterAtoms>  (407) 


>  <Gold.Id.Protein>  (407) 


>  <Gold.PLP.Chemscore.CHOScore>  (407) 
0.9979

>  <Gold.PLP.Chemscore.Hbond>  (407) 
1.9750

>  <Gold.PLP.Chemscore.Internal.Correction>  (407) 
0.0002

>  <Gold.PLP.Chemscore.Metal>  (407) 
0.0000

>  <Gold.PLP.Fitness>  (407) 
49.1607

>  <Gold.PLP.PLP>  (407) 
-40.9341

>  <Gold.PLP.ligand.clash>  (407) 
0.0000

>  <Gold.PLP.ligand.torsion>  (407) 
0.3461

>  <Gold.PLP.part.buried>  (407) 
-8.8544

>  <Gold.PLP.part.hbond>  (407) 
-3.6712

>  <Gold.PLP.part.metal>  (407) 
0.0000

>  <Gold.PLP.part.nonpolar>  (407) 
-29.6326

>  <Gold.PLP.part.repulsive>  (407) 
0.6255

>  <Gold.Protein.RotatedAtoms>  (407) 


>  <Gold.Protein.RotatedTorsions>  (407) 


>  <Gold.Protein.RotatedWaterAtoms>  (407) 


>  <Gold.Version>  (407) 
5.3.0

>  <PLP.Chemscore.CHOScore>  (407) 


>  <PLP.Chemscore.Hbond>  (407) 


>  <PLP.Chemscore.Internal.Correction>  (407) 


>  <PLP.Chemscore.Metal>  (407) 


>  <PLP.Fitness>  (407) 


>  <PLP.PLP>  (407) 


>  <PLP.ligand.clash>  (407) 


>  <PLP.ligand.torsion>  (407) 


>  <PLP.part.buried>  (407) 


>  <PLP.part.hbond>  (407) 


>  <PLP.part.metal>  (407) 


>  <PLP.part.nonpolar>  (407) 


>  <PLP.part.repulsive>  (407) 


>  <Version>  (407) 


$$$$
3407|Compound_2101|Compounds_3D_F|sdf|610|dock3|1
     RDKit          3D

 17 18  0  0  0  0  0  0  0  0999 V2000
   -7.9619  -15.5874   12.0689 N   0  0  0  0  0  0  0  0  0  0  0  0
   -8.0626  -14.2482   12.1856 C   0  0  0  0  0  0  0  0  0  0  0  0
   -9.1576  -13.7232   12.2295 O   0  0  0  0  0  0  0  0  0  0  0  0
   -6.8421  -13.4197   12.2603 C   0  0  0  0  0  0  0  0  0  0  0  0
   -5.6003  -13.8372   12.1105 N   0  0  0  0  0  0  0  0  0  0  0  0
   -4.7859  -12.8515   12.2370 N   0  0  0  0  0  0  0  0  0  0  0  0
   -5.4677  -11.7118   12.4825 C   0  0  0  0  0  0  0  0  0  0  0  0
   -6.7832  -12.0264   12.4996 C   0  0  0  0  0  0  0  0  0  0  0  0
   -9.1099  -16.3668   11.9936 C   0  0  0  0  0  0  0  0  0  0  0  0
  -10.3014  -16.1865   12.5483 N   0  0  0  0  0  0  0  0  0  0  0  0
  -11.2464  -17.0027   12.3739 N   0  0  0  0  0  0  0  0  0  0  0  0
  -11.1125  -18.0845   11.6316 C   0  0  0  0  0  0  0  0  0  0  0  0
   -9.4081  -17.8977   11.1133 S   0  0  0  0  0  0  0  0  0  0  0  0
  -12.1099  -19.1665   11.3076 C   0  0  0  0  0  0  0  0  0  0  0  0
  -11.6168  -20.4011   11.7427 F   0  0  0  0  0  0  0  0  0  0  0  0
  -13.3208  -18.8935   11.9548 F   0  0  0  0  0  0  0  0  0  0  0  0
  -12.3199  -19.2088    9.9251 F   0  0  0  0  0  0  0  0  0  0  0  0
  1  2  1  0
  1  9  1  0
  2  3  2  0
  2  4  1  0
  4  5  2  0
  4  8  1  0
  5  6  1  0
  6  7  1  0
  7  8  2  0
  9 10  2  0
  9 13  1  0
 10 11  1  0
 11 12  2  0
 12 13  1  0
 12 14  1  0
 14 15  1  0
 14 16  1  0
 14 17  1  0
M  END
>  <Gold.Gold.Protein.RotatedWaterAtoms>  (408) 


>  <Gold.Id.Protein>  (408) 


>  <Gold.PLP.Chemscore.CHOScore>  (408) 
0.8686

>  <Gold.PLP.Chemscore.Hbond>  (408) 
2.1680

>  <Gold.PLP.Chemscore.Internal.Correction>  (408) 
0.0002

>  <Gold.PLP.Chemscore.Metal>  (408) 
0.0000

>  <Gold.PLP.Fitness>  (408) 
47.2094

>  <Gold.PLP.PLP>  (408) 
-38.5722

>  <Gold.PLP.ligand.clash>  (408) 
0.0000

>  <Gold.PLP.ligand.torsion>  (408) 
0.2365

>  <Gold.PLP.part.buried>  (408) 
-4.7760

>  <Gold.PLP.part.hbond>  (408) 
-4.1369

>  <Gold.PLP.part.metal>  (408) 
0.0000

>  <Gold.PLP.part.nonpolar>  (408) 
-28.9786

>  <Gold.PLP.part.repulsive>  (408) 
0.7068

>  <Gold.Protein.RotatedAtoms>  (408) 


>  <Gold.Protein.RotatedTorsions>  (408) 


>  <Gold.Protein.RotatedWaterAtoms>  (408) 


>  <Gold.Version>  (408) 
5.3.0

>  <PLP.Chemscore.CHOScore>  (408) 


>  <PLP.Chemscore.Hbond>  (408) 


>  <PLP.Chemscore.Internal.Correction>  (408) 


>  <PLP.Chemscore.Metal>  (408) 


>  <PLP.Fitness>  (408) 


>  <PLP.PLP>  (408) 


>  <PLP.ligand.clash>  (408) 


>  <PLP.ligand.torsion>  (408) 


>  <PLP.part.buried>  (408) 


>  <PLP.part.hbond>  (408) 


>  <PLP.part.metal>  (408) 


>  <PLP.part.nonpolar>  (408) 


>  <PLP.part.repulsive>  (408) 


>  <Version>  (408) 


$$$$
3408|Compound_2102|Compounds_3D_F|sdf|611|dock1|1
     RDKit          3D

 19 20  0  0  0  0  0  0  0  0999 V2000
   -9.5047  -15.2865   12.4406 O   0  0  0  0  0  0  0  0  0  0  0  0
   -8.3782  -14.8418   11.8506 C   0  0  0  0  0  0  0  0  0  0  0  0
   -7.7338  -13.9519   12.3665 O   0  0  0  0  0  0  0  0  0  0  0  0
   -7.9262  -15.4393   10.5752 C   0  0  0  0  0  0  0  0  0  0  0  0
   -6.8416  -14.9717    9.9528 N   0  0  0  0  0  0  0  0  0  0  0  0
   -6.4327  -15.5003    8.8157 C   0  0  0  0  0  0  0  0  0  0  0  0
   -5.3253  -14.9951    8.2178 O   0  0  0  0  0  0  0  0  0  0  0  0
   -7.0688  -16.5103    8.2403 N   0  0  0  0  0  0  0  0  0  0  0  0
   -8.1534  -17.0338    8.7892 C   0  0  0  0  0  0  0  0  0  0  0  0
   -8.7963  -18.0668    8.1918 O   0  0  0  0  0  0  0  0  0  0  0  0
   -8.6240  -16.5082   10.0044 C   0  0  0  0  0  0  0  0  0  0  0  0
   -9.7616  -17.0304   10.6177 N   0  0  0  0  0  0  0  0  0  0  0  0
   -9.7727  -18.3110   11.0388 C   0  0  0  0  0  0  0  0  0  0  0  0
   -8.8105  -19.0253   10.8372 O   0  0  0  0  0  0  0  0  0  0  0  0
  -10.9541  -18.8457   11.7459 C   0  0  0  0  0  0  0  0  0  0  0  0
  -10.9886  -19.9116   12.5201 N   0  0  0  0  0  0  0  0  0  0  0  0
  -12.1778  -20.0890   12.9738 N   0  0  0  0  0  0  0  0  0  0  0  0
  -13.0022  -19.1266   12.5088 C   0  0  0  0  0  0  0  0  0  0  0  0
  -12.2624  -18.3078   11.7262 C   0  0  0  0  0  0  0  0  0  0  0  0
  1  2  1  0
  2  3  2  0
  2  4  1  0
  4  5  2  0
  4 11  1  0
  5  6  1  0
  6  7  1  0
  6  8  2  0
  8  9  1  0
  9 10  1  0
  9 11  2  0
 11 12  1  0
 12 13  1  0
 13 14  2  0
 13 15  1  0
 15 16  2  0
 15 19  1  0
 16 17  1  0
 17 18  1  0
 18 19  2  0
M  END
>  <Gold.Gold.Protein.RotatedWaterAtoms>  (409) 


>  <Gold.Id.Protein>  (409) 


>  <Gold.PLP.Chemscore.CHOScore>  (409) 
1.0000

>  <Gold.PLP.Chemscore.Hbond>  (409) 
3.1681

>  <Gold.PLP.Chemscore.Internal.Correction>  (409) 
1.1779

>  <Gold.PLP.Chemscore.Metal>  (409) 
0.0000

>  <Gold.PLP.Fitness>  (409) 
43.0000

>  <Gold.PLP.PLP>  (409) 
-30.8466

>  <Gold.PLP.ligand.clash>  (409) 
0.0000

>  <Gold.PLP.ligand.torsion>  (409) 
0.7643

>  <Gold.PLP.part.buried>  (409) 
-7.3506

>  <Gold.PLP.part.hbond>  (409) 
-6.1606

>  <Gold.PLP.part.metal>  (409) 
0.0000

>  <Gold.PLP.part.nonpolar>  (409) 
-18.1108

>  <Gold.PLP.part.repulsive>  (409) 
0.4163

>  <Gold.Protein.RotatedAtoms>  (409) 


>  <Gold.Protein.RotatedTorsions>  (409) 


>  <Gold.Protein.RotatedWaterAtoms>  (409) 


>  <Gold.Version>  (409) 
5.3.0

>  <PLP.Chemscore.CHOScore>  (409) 


>  <PLP.Chemscore.Hbond>  (409) 


>  <PLP.Chemscore.Internal.Correction>  (409) 


>  <PLP.Chemscore.Metal>  (409) 


>  <PLP.Fitness>  (409) 


>  <PLP.PLP>  (409) 


>  <PLP.ligand.clash>  (409) 


>  <PLP.ligand.torsion>  (409) 


>  <PLP.part.buried>  (409) 


>  <PLP.part.hbond>  (409) 


>  <PLP.part.metal>  (409) 


>  <PLP.part.nonpolar>  (409) 


>  <PLP.part.repulsive>  (409) 


>  <Version>  (409) 


$$$$
3409|Compound_2102|Compounds_3D_F|sdf|611|dock2|1
     RDKit          3D

 19 20  0  0  0  0  0  0  0  0999 V2000
   -5.3736  -15.2071    9.0434 O   0  0  0  0  0  0  0  0  0  0  0  0
   -6.6577  -15.3413    9.4279 C   0  0  0  0  0  0  0  0  0  0  0  0
   -7.4050  -16.0669    8.8047 O   0  0  0  0  0  0  0  0  0  0  0  0
   -7.1561  -14.6055   10.6103 C   0  0  0  0  0  0  0  0  0  0  0  0
   -6.4060  -13.6663   11.1917 N   0  0  0  0  0  0  0  0  0  0  0  0
   -6.8446  -13.0060   12.2458 C   0  0  0  0  0  0  0  0  0  0  0  0
   -6.0502  -12.0594   12.8045 O   0  0  0  0  0  0  0  0  0  0  0  0
   -8.0371  -13.2372   12.7750 N   0  0  0  0  0  0  0  0  0  0  0  0
   -8.8445  -14.1519   12.2617 C   0  0  0  0  0  0  0  0  0  0  0  0
  -10.0624  -14.3802   12.8113 O   0  0  0  0  0  0  0  0  0  0  0  0
   -8.4238  -14.8771   11.1342 C   0  0  0  0  0  0  0  0  0  0  0  0
   -9.2429  -15.8484   10.5610 N   0  0  0  0  0  0  0  0  0  0  0  0
   -8.9954  -17.1550   10.7820 C   0  0  0  0  0  0  0  0  0  0  0  0
   -8.0280  -17.4877   11.4379 O   0  0  0  0  0  0  0  0  0  0  0  0
   -9.9006  -18.1822   10.2277 C   0  0  0  0  0  0  0  0  0  0  0  0
   -9.6012  -19.4425    9.9851 N   0  0  0  0  0  0  0  0  0  0  0  0
  -10.6245  -20.0544    9.5052 N   0  0  0  0  0  0  0  0  0  0  0  0
  -11.6701  -19.2065    9.4062 C   0  0  0  0  0  0  0  0  0  0  0  0
  -11.2553  -18.0022    9.8620 C   0  0  0  0  0  0  0  0  0  0  0  0
  1  2  1  0
  2  3  2  0
  2  4  1  0
  4  5  2  0
  4 11  1  0
  5  6  1  0
  6  7  1  0
  6  8  2  0
  8  9  1  0
  9 10  1  0
  9 11  2  0
 11 12  1  0
 12 13  1  0
 13 14  2  0
 13 15  1  0
 15 16  2  0
 15 19  1  0
 16 17  1  0
 17 18  1  0
 18 19  2  0
M  END
>  <Gold.Gold.Protein.RotatedWaterAtoms>  (410) 


>  <Gold.Id.Protein>  (410) 


>  <Gold.PLP.Chemscore.CHOScore>  (410) 
0.0000

>  <Gold.PLP.Chemscore.Hbond>  (410) 
3.6200

>  <Gold.PLP.Chemscore.Internal.Correction>  (410) 
1.1626

>  <Gold.PLP.Chemscore.Metal>  (410) 
0.0000

>  <Gold.PLP.Fitness>  (410) 
45.1390

>  <Gold.PLP.PLP>  (410) 
-35.0828

>  <Gold.PLP.ligand.clash>  (410) 
0.0000

>  <Gold.PLP.ligand.torsion>  (410) 
0.9831

>  <Gold.PLP.part.buried>  (410) 
-7.7870

>  <Gold.PLP.part.hbond>  (410) 
-7.6546

>  <Gold.PLP.part.metal>  (410) 
0.0000

>  <Gold.PLP.part.nonpolar>  (410) 
-21.0573

>  <Gold.PLP.part.repulsive>  (410) 
0.4906

>  <Gold.Protein.RotatedAtoms>  (410) 


>  <Gold.Protein.RotatedTorsions>  (410) 


>  <Gold.Protein.RotatedWaterAtoms>  (410) 


>  <Gold.Version>  (410) 
5.3.0

>  <PLP.Chemscore.CHOScore>  (410) 


>  <PLP.Chemscore.Hbond>  (410) 


>  <PLP.Chemscore.Internal.Correction>  (410) 


>  <PLP.Chemscore.Metal>  (410) 


>  <PLP.Fitness>  (410) 


>  <PLP.PLP>  (410) 


>  <PLP.ligand.clash>  (410) 


>  <PLP.ligand.torsion>  (410) 


>  <PLP.part.buried>  (410) 


>  <PLP.part.hbond>  (410) 


>  <PLP.part.metal>  (410) 


>  <PLP.part.nonpolar>  (410) 


>  <PLP.part.repulsive>  (410) 


>  <Version>  (410) 


$$$$
3410|Compound_2102|Compounds_3D_F|sdf|611|dock3|1
     RDKit          3D

 19 20  0  0  0  0  0  0  0  0999 V2000
   -6.0583  -17.4361   10.7002 O   0  0  0  0  0  0  0  0  0  0  0  0
   -6.7095  -18.5626   10.3509 C   0  0  0  0  0  0  0  0  0  0  0  0
   -6.1255  -19.4382    9.7462 O   0  0  0  0  0  0  0  0  0  0  0  0
   -8.1354  -18.7324   10.7056 C   0  0  0  0  0  0  0  0  0  0  0  0
   -8.7973  -19.8356   10.3487 N   0  0  0  0  0  0  0  0  0  0  0  0
  -10.0686  -19.9937   10.6624 C   0  0  0  0  0  0  0  0  0  0  0  0
  -10.7023  -21.1305   10.2809 O   0  0  0  0  0  0  0  0  0  0  0  0
  -10.7455  -19.0779   11.3398 N   0  0  0  0  0  0  0  0  0  0  0  0
  -10.1664  -17.9541   11.7317 C   0  0  0  0  0  0  0  0  0  0  0  0
  -10.8685  -17.0240   12.4241 O   0  0  0  0  0  0  0  0  0  0  0  0
   -8.8112  -17.7430   11.4264 C   0  0  0  0  0  0  0  0  0  0  0  0
   -8.1619  -16.5744   11.8212 N   0  0  0  0  0  0  0  0  0  0  0  0
   -8.4931  -15.3957   11.2569 C   0  0  0  0  0  0  0  0  0  0  0  0
   -9.3204  -15.3589   10.3677 O   0  0  0  0  0  0  0  0  0  0  0  0
   -7.8508  -14.1489   11.7204 C   0  0  0  0  0  0  0  0  0  0  0  0
   -8.1651  -12.9224   11.3548 N   0  0  0  0  0  0  0  0  0  0  0  0
   -7.4046  -12.0757   11.9519 N   0  0  0  0  0  0  0  0  0  0  0  0
   -6.5330  -12.7192   12.7570 C   0  0  0  0  0  0  0  0  0  0  0  0
   -6.7858  -14.0435   12.6455 C   0  0  0  0  0  0  0  0  0  0  0  0
  1  2  1  0
  2  3  2  0
  2  4  1  0
  4  5  2  0
  4 11  1  0
  5  6  1  0
  6  7  1  0
  6  8  2  0
  8  9  1  0
  9 10  1  0
  9 11  2  0
 11 12  1  0
 12 13  1  0
 13 14  2  0
 13 15  1  0
 15 16  2  0
 15 19  1  0
 16 17  1  0
 17 18  1  0
 18 19  2  0
M  END
>  <Gold.Gold.Protein.RotatedWaterAtoms>  (411) 


>  <Gold.Id.Protein>  (411) 


>  <Gold.PLP.Chemscore.CHOScore>  (411) 
0.8907

>  <Gold.PLP.Chemscore.Hbond>  (411) 
2.0000

>  <Gold.PLP.Chemscore.Internal.Correction>  (411) 
1.1585

>  <Gold.PLP.Chemscore.Metal>  (411) 
0.0000

>  <Gold.PLP.Fitness>  (411) 
39.8029

>  <Gold.PLP.PLP>  (411) 
-31.3200

>  <Gold.PLP.ligand.clash>  (411) 
0.0000

>  <Gold.PLP.ligand.torsion>  (411) 
0.6739

>  <Gold.PLP.part.buried>  (411) 
-8.3275

>  <Gold.PLP.part.hbond>  (411) 
-3.0000

>  <Gold.PLP.part.metal>  (411) 
0.0000

>  <Gold.PLP.part.nonpolar>  (411) 
-22.3522

>  <Gold.PLP.part.repulsive>  (411) 
0.4317

>  <Gold.Protein.RotatedAtoms>  (411) 


>  <Gold.Protein.RotatedTorsions>  (411) 


>  <Gold.Protein.RotatedWaterAtoms>  (411) 


>  <Gold.Version>  (411) 
5.3.0

>  <PLP.Chemscore.CHOScore>  (411) 


>  <PLP.Chemscore.Hbond>  (411) 


>  <PLP.Chemscore.Internal.Correction>  (411) 


>  <PLP.Chemscore.Metal>  (411) 


>  <PLP.Fitness>  (411) 


>  <PLP.PLP>  (411) 


>  <PLP.ligand.clash>  (411) 


>  <PLP.ligand.torsion>  (411) 


>  <PLP.part.buried>  (411) 


>  <PLP.part.hbond>  (411) 


>  <PLP.part.metal>  (411) 


>  <PLP.part.nonpolar>  (411) 


>  <PLP.part.repulsive>  (411) 


>  <Version>  (411) 


$$$$
3411|Compound_2102|Compounds_3D_F|sdf|611|dock4|1
     RDKit          3D

 19 20  0  0  0  0  0  0  0  0999 V2000
   -6.7601  -17.6572   10.5810 O   0  0  0  0  0  0  0  0  0  0  0  0
   -7.8529  -18.4232   10.3965 C   0  0  0  0  0  0  0  0  0  0  0  0
   -7.7877  -19.4157    9.7009 O   0  0  0  0  0  0  0  0  0  0  0  0
   -9.1313  -18.0552   11.0431 C   0  0  0  0  0  0  0  0  0  0  0  0
  -10.2179  -18.8136   10.8801 N   0  0  0  0  0  0  0  0  0  0  0  0
  -11.3608  -18.4916   11.4544 C   0  0  0  0  0  0  0  0  0  0  0  0
  -12.4396  -19.2910   11.2630 O   0  0  0  0  0  0  0  0  0  0  0  0
  -11.4876  -17.4130   12.2135 N   0  0  0  0  0  0  0  0  0  0  0  0
  -10.4608  -16.6055   12.4268 C   0  0  0  0  0  0  0  0  0  0  0  0
  -10.6019  -15.5047   13.2051 O   0  0  0  0  0  0  0  0  0  0  0  0
   -9.2205  -16.9104   11.8411 C   0  0  0  0  0  0  0  0  0  0  0  0
   -8.1129  -16.0880   12.0408 N   0  0  0  0  0  0  0  0  0  0  0  0
   -8.1447  -14.8035   11.6329 C   0  0  0  0  0  0  0  0  0  0  0  0
   -9.1187  -14.3767   11.0447 O   0  0  0  0  0  0  0  0  0  0  0  0
   -6.9960  -13.9147   11.9017 C   0  0  0  0  0  0  0  0  0  0  0  0
   -5.7393  -14.2817   12.0525 N   0  0  0  0  0  0  0  0  0  0  0  0
   -5.0026  -13.2520   12.2736 N   0  0  0  0  0  0  0  0  0  0  0  0
   -5.7566  -12.1324   12.2797 C   0  0  0  0  0  0  0  0  0  0  0  0
   -7.0343  -12.5074   12.0403 C   0  0  0  0  0  0  0  0  0  0  0  0
  1  2  1  0
  2  3  2  0
  2  4  1  0
  4  5  2  0
  4 11  1  0
  5  6  1  0
  6  7  1  0
  6  8  2  0
  8  9  1  0
  9 10  1  0
  9 11  2  0
 11 12  1  0
 12 13  1  0
 13 14  2  0
 13 15  1  0
 15 16  2  0
 15 19  1  0
 16 17  1  0
 17 18  1  0
 18 19  2  0
M  END
>  <Gold.Gold.Protein.RotatedWaterAtoms>  (412) 


>  <Gold.Id.Protein>  (412) 


>  <Gold.PLP.Chemscore.CHOScore>  (412) 
0.0000

>  <Gold.PLP.Chemscore.Hbond>  (412) 
3.2865

>  <Gold.PLP.Chemscore.Internal.Correction>  (412) 
1.1565

>  <Gold.PLP.Chemscore.Metal>  (412) 
0.0000

>  <Gold.PLP.Fitness>  (412) 
44.9288

>  <Gold.PLP.PLP>  (412) 
-35.6837

>  <Gold.PLP.ligand.clash>  (412) 
0.0000

>  <Gold.PLP.ligand.torsion>  (412) 
0.8854

>  <Gold.PLP.part.buried>  (412) 
-3.0897

>  <Gold.PLP.part.hbond>  (412) 
-8.3632

>  <Gold.PLP.part.metal>  (412) 
0.0000

>  <Gold.PLP.part.nonpolar>  (412) 
-25.0767

>  <Gold.PLP.part.repulsive>  (412) 
0.5266

>  <Gold.Protein.RotatedAtoms>  (412) 


>  <Gold.Protein.RotatedTorsions>  (412) 


>  <Gold.Protein.RotatedWaterAtoms>  (412) 


>  <Gold.Version>  (412) 
5.3.0

>  <PLP.Chemscore.CHOScore>  (412) 


>  <PLP.Chemscore.Hbond>  (412) 


>  <PLP.Chemscore.Internal.Correction>  (412) 


>  <PLP.Chemscore.Metal>  (412) 


>  <PLP.Fitness>  (412) 


>  <PLP.PLP>  (412) 


>  <PLP.ligand.clash>  (412) 


>  <PLP.ligand.torsion>  (412) 


>  <PLP.part.buried>  (412) 


>  <PLP.part.hbond>  (412) 


>  <PLP.part.metal>  (412) 


>  <PLP.part.nonpolar>  (412) 


>  <PLP.part.repulsive>  (412) 


>  <Version>  (412) 


$$$$
3412|Compound_2102|Compounds_3D_F|sdf|611|dock5|1
     RDKit          3D

 19 20  0  0  0  0  0  0  0  0999 V2000
   -6.3691  -16.5073   10.5763 O   0  0  0  0  0  0  0  0  0  0  0  0
   -7.2278  -17.5344   10.4258 C   0  0  0  0  0  0  0  0  0  0  0  0
   -6.9100  -18.4983    9.7601 O   0  0  0  0  0  0  0  0  0  0  0  0
   -8.5569  -17.4876   11.0733 C   0  0  0  0  0  0  0  0  0  0  0  0
   -9.4210  -18.4944   10.9238 N   0  0  0  0  0  0  0  0  0  0  0  0
  -10.6074  -18.4594   11.4989 C   0  0  0  0  0  0  0  0  0  0  0  0
  -11.4538  -19.5042   11.3216 O   0  0  0  0  0  0  0  0  0  0  0  0
  -10.9976  -17.4367   12.2456 N   0  0  0  0  0  0  0  0  0  0  0  0
  -10.2037  -16.3966   12.4450 C   0  0  0  0  0  0  0  0  0  0  0  0
  -10.6133  -15.3558   13.2106 O   0  0  0  0  0  0  0  0  0  0  0  0
   -8.9272  -16.3910   11.8578 C   0  0  0  0  0  0  0  0  0  0  0  0
   -8.0586  -15.3166   12.0430 N   0  0  0  0  0  0  0  0  0  0  0  0
   -8.4098  -14.0854   11.6210 C   0  0  0  0  0  0  0  0  0  0  0  0
   -9.4603  -13.9214   11.0328 O   0  0  0  0  0  0  0  0  0  0  0  0
   -7.5178  -12.9356   11.8745 C   0  0  0  0  0  0  0  0  0  0  0  0
   -7.7708  -11.6717   11.6000 N   0  0  0  0  0  0  0  0  0  0  0  0
   -6.7773  -10.9365   11.9524 N   0  0  0  0  0  0  0  0  0  0  0  0
   -5.8003  -11.6988   12.4874 C   0  0  0  0  0  0  0  0  0  0  0  0
   -6.2324  -12.9805   12.4635 C   0  0  0  0  0  0  0  0  0  0  0  0
  1  2  1  0
  2  3  2  0
  2  4  1  0
  4  5  2  0
  4 11  1  0
  5  6  1  0
  6  7  1  0
  6  8  2  0
  8  9  1  0
  9 10  1  0
  9 11  2  0
 11 12  1  0
 12 13  1  0
 13 14  2  0
 13 15  1  0
 15 16  2  0
 15 19  1  0
 16 17  1  0
 17 18  1  0
 18 19  2  0
M  END
>  <Gold.Gold.Protein.RotatedWaterAtoms>  (413) 


>  <Gold.Id.Protein>  (413) 


>  <Gold.PLP.Chemscore.CHOScore>  (413) 
1.0000

>  <Gold.PLP.Chemscore.Hbond>  (413) 
3.2041

>  <Gold.PLP.Chemscore.Internal.Correction>  (413) 
1.1565

>  <Gold.PLP.Chemscore.Metal>  (413) 
0.0000

>  <Gold.PLP.Fitness>  (413) 
50.1733

>  <Gold.PLP.PLP>  (413) 
-37.6028

>  <Gold.PLP.ligand.clash>  (413) 
0.0213

>  <Gold.PLP.ligand.torsion>  (413) 
0.5886

>  <Gold.PLP.part.buried>  (413) 
-5.2626

>  <Gold.PLP.part.hbond>  (413) 
-6.9269

>  <Gold.PLP.part.metal>  (413) 
0.0000

>  <Gold.PLP.part.nonpolar>  (413) 
-27.1175

>  <Gold.PLP.part.repulsive>  (413) 
1.0635

>  <Gold.Protein.RotatedAtoms>  (413) 


>  <Gold.Protein.RotatedTorsions>  (413) 


>  <Gold.Protein.RotatedWaterAtoms>  (413) 


>  <Gold.Version>  (413) 
5.3.0

>  <PLP.Chemscore.CHOScore>  (413) 


>  <PLP.Chemscore.Hbond>  (413) 


>  <PLP.Chemscore.Internal.Correction>  (413) 


>  <PLP.Chemscore.Metal>  (413) 


>  <PLP.Fitness>  (413) 


>  <PLP.PLP>  (413) 


>  <PLP.ligand.clash>  (413) 


>  <PLP.ligand.torsion>  (413) 


>  <PLP.part.buried>  (413) 


>  <PLP.part.hbond>  (413) 


>  <PLP.part.metal>  (413) 


>  <PLP.part.nonpolar>  (413) 


>  <PLP.part.repulsive>  (413) 


>  <Version>  (413) 


$$$$
3413|Compound_2102|Compounds_3D_F|sdf|611|dock6|1
     RDKit          3D

 19 20  0  0  0  0  0  0  0  0999 V2000
   -7.9355  -13.9906   12.3547 O   0  0  0  0  0  0  0  0  0  0  0  0
   -8.6361  -14.9528   11.7238 C   0  0  0  0  0  0  0  0  0  0  0  0
   -9.6871  -15.3423   12.1894 O   0  0  0  0  0  0  0  0  0  0  0  0
   -8.1248  -15.5333   10.4630 C   0  0  0  0  0  0  0  0  0  0  0  0
   -7.0524  -15.0130    9.8614 N   0  0  0  0  0  0  0  0  0  0  0  0
   -6.5909  -15.5262    8.7375 C   0  0  0  0  0  0  0  0  0  0  0  0
   -5.4983  -14.9669    8.1607 O   0  0  0  0  0  0  0  0  0  0  0  0
   -7.1600  -16.5715    8.1553 N   0  0  0  0  0  0  0  0  0  0  0  0
   -8.2278  -17.1481    8.6837 C   0  0  0  0  0  0  0  0  0  0  0  0
   -8.8020  -18.2170    8.0795 O   0  0  0  0  0  0  0  0  0  0  0  0
   -8.7525  -16.6408    9.8844 C   0  0  0  0  0  0  0  0  0  0  0  0
   -9.8747  -17.2185   10.4760 N   0  0  0  0  0  0  0  0  0  0  0  0
   -9.7816  -18.4319   11.0560 C   0  0  0  0  0  0  0  0  0  0  0  0
   -8.7330  -19.0448   11.0177 O   0  0  0  0  0  0  0  0  0  0  0  0
  -10.9540  -19.0158   11.7389 C   0  0  0  0  0  0  0  0  0  0  0  0
  -10.9755  -20.1264   12.4481 N   0  0  0  0  0  0  0  0  0  0  0  0
  -12.1599  -20.3387   12.8994 N   0  0  0  0  0  0  0  0  0  0  0  0
  -12.9940  -19.3557   12.4992 C   0  0  0  0  0  0  0  0  0  0  0  0
  -12.2657  -18.4865   11.7615 C   0  0  0  0  0  0  0  0  0  0  0  0
  1  2  1  0
  2  3  2  0
  2  4  1  0
  4  5  2  0
  4 11  1  0
  5  6  1  0
  6  7  1  0
  6  8  2  0
  8  9  1  0
  9 10  1  0
  9 11  2  0
 11 12  1  0
 12 13  1  0
 13 14  2  0
 13 15  1  0
 15 16  2  0
 15 19  1  0
 16 17  1  0
 17 18  1  0
 18 19  2  0
M  END
>  <Gold.Gold.Protein.RotatedWaterAtoms>  (414) 


>  <Gold.Id.Protein>  (414) 


>  <Gold.PLP.Chemscore.CHOScore>  (414) 
1.0000

>  <Gold.PLP.Chemscore.Hbond>  (414) 
2.9590

>  <Gold.PLP.Chemscore.Internal.Correction>  (414) 
1.1561

>  <Gold.PLP.Chemscore.Metal>  (414) 
0.0000

>  <Gold.PLP.Fitness>  (414) 
41.1704

>  <Gold.PLP.PLP>  (414) 
-29.5665

>  <Gold.PLP.ligand.clash>  (414) 
0.0000

>  <Gold.PLP.ligand.torsion>  (414) 
0.7145

>  <Gold.PLP.part.buried>  (414) 
-6.2925

>  <Gold.PLP.part.hbond>  (414) 
-5.1089

>  <Gold.PLP.part.metal>  (414) 
0.0000

>  <Gold.PLP.part.nonpolar>  (414) 
-17.8369

>  <Gold.PLP.part.repulsive>  (414) 
0.4109

>  <Gold.Protein.RotatedAtoms>  (414) 


>  <Gold.Protein.RotatedTorsions>  (414) 


>  <Gold.Protein.RotatedWaterAtoms>  (414) 


>  <Gold.Version>  (414) 
5.3.0

>  <PLP.Chemscore.CHOScore>  (414) 


>  <PLP.Chemscore.Hbond>  (414) 


>  <PLP.Chemscore.Internal.Correction>  (414) 


>  <PLP.Chemscore.Metal>  (414) 


>  <PLP.Fitness>  (414) 


>  <PLP.PLP>  (414) 


>  <PLP.ligand.clash>  (414) 


>  <PLP.ligand.torsion>  (414) 


>  <PLP.part.buried>  (414) 


>  <PLP.part.hbond>  (414) 


>  <PLP.part.metal>  (414) 


>  <PLP.part.nonpolar>  (414) 


>  <PLP.part.repulsive>  (414) 


>  <Version>  (414) 


$$$$
3414|Compound_2102|Compounds_3D_F|sdf|611|dock7|1
     RDKit          3D

 19 20  0  0  0  0  0  0  0  0999 V2000
   -5.5565  -14.9484    8.8795 O   0  0  0  0  0  0  0  0  0  0  0  0
   -6.7655  -15.2225    9.4069 C   0  0  0  0  0  0  0  0  0  0  0  0
   -7.4682  -16.0744    8.9032 O   0  0  0  0  0  0  0  0  0  0  0  0
   -7.2354  -14.4861   10.6006 C   0  0  0  0  0  0  0  0  0  0  0  0
   -6.4764  -13.5389   11.1567 N   0  0  0  0  0  0  0  0  0  0  0  0
   -6.8897  -12.8780   12.2207 C   0  0  0  0  0  0  0  0  0  0  0  0
   -6.0870  -11.9230   12.7528 O   0  0  0  0  0  0  0  0  0  0  0  0
   -8.0646  -13.1166   12.7848 N   0  0  0  0  0  0  0  0  0  0  0  0
   -8.8791  -14.0395   12.2984 C   0  0  0  0  0  0  0  0  0  0  0  0
  -10.0788  -14.2753   12.8837 O   0  0  0  0  0  0  0  0  0  0  0  0
   -8.4852  -14.7657   11.1618 C   0  0  0  0  0  0  0  0  0  0  0  0
   -9.3128  -15.7456   10.6159 N   0  0  0  0  0  0  0  0  0  0  0  0
   -9.0953  -17.0456   10.8986 C   0  0  0  0  0  0  0  0  0  0  0  0
   -8.1470  -17.3674   11.5869 O   0  0  0  0  0  0  0  0  0  0  0  0
  -10.0104  -18.0788   10.3724 C   0  0  0  0  0  0  0  0  0  0  0  0
  -11.1415  -17.8702    9.7290 N   0  0  0  0  0  0  0  0  0  0  0  0
  -11.6834  -18.9922    9.4143 N   0  0  0  0  0  0  0  0  0  0  0  0
  -10.9177  -20.0166    9.8459 C   0  0  0  0  0  0  0  0  0  0  0  0
   -9.8367  -19.4802   10.4574 C   0  0  0  0  0  0  0  0  0  0  0  0
  1  2  1  0
  2  3  2  0
  2  4  1  0
  4  5  2  0
  4 11  1  0
  5  6  1  0
  6  7  1  0
  6  8  2  0
  8  9  1  0
  9 10  1  0
  9 11  2  0
 11 12  1  0
 12 13  1  0
 13 14  2  0
 13 15  1  0
 15 16  2  0
 15 19  1  0
 16 17  1  0
 17 18  1  0
 18 19  2  0
M  END
>  <Gold.Gold.Protein.RotatedWaterAtoms>  (415) 


>  <Gold.Id.Protein>  (415) 


>  <Gold.PLP.Chemscore.CHOScore>  (415) 
0.0000

>  <Gold.PLP.Chemscore.Hbond>  (415) 
3.0184

>  <Gold.PLP.Chemscore.Internal.Correction>  (415) 
1.1561

>  <Gold.PLP.Chemscore.Metal>  (415) 
0.0000

>  <Gold.PLP.Fitness>  (415) 
45.4931

>  <Gold.PLP.PLP>  (415) 
-36.7913

>  <Gold.PLP.ligand.clash>  (415) 
0.0000

>  <Gold.PLP.ligand.torsion>  (415) 
0.7547

>  <Gold.PLP.part.buried>  (415) 
-8.8715

>  <Gold.PLP.part.hbond>  (415) 
-8.4342

>  <Gold.PLP.part.metal>  (415) 
0.0000

>  <Gold.PLP.part.nonpolar>  (415) 
-20.0250

>  <Gold.PLP.part.repulsive>  (415) 
0.5499

>  <Gold.Protein.RotatedAtoms>  (415) 


>  <Gold.Protein.RotatedTorsions>  (415) 


>  <Gold.Protein.RotatedWaterAtoms>  (415) 


>  <Gold.Version>  (415) 
5.3.0

>  <PLP.Chemscore.CHOScore>  (415) 


>  <PLP.Chemscore.Hbond>  (415) 


>  <PLP.Chemscore.Internal.Correction>  (415) 


>  <PLP.Chemscore.Metal>  (415) 


>  <PLP.Fitness>  (415) 


>  <PLP.PLP>  (415) 


>  <PLP.ligand.clash>  (415) 


>  <PLP.ligand.torsion>  (415) 


>  <PLP.part.buried>  (415) 


>  <PLP.part.hbond>  (415) 


>  <PLP.part.metal>  (415) 


>  <PLP.part.nonpolar>  (415) 


>  <PLP.part.repulsive>  (415) 


>  <Version>  (415) 


$$$$
3415|Compound_2102|Compounds_3D_F|sdf|611|dock8|1
     RDKit          3D

 19 20  0  0  0  0  0  0  0  0999 V2000
   -9.7716  -15.2157   12.5019 O   0  0  0  0  0  0  0  0  0  0  0  0
   -8.6737  -14.7190   11.8994 C   0  0  0  0  0  0  0  0  0  0  0  0
   -8.1071  -13.7545   12.3704 O   0  0  0  0  0  0  0  0  0  0  0  0
   -8.1584  -15.3504   10.6650 C   0  0  0  0  0  0  0  0  0  0  0  0
   -7.0652  -14.8745   10.0641 N   0  0  0  0  0  0  0  0  0  0  0  0
   -6.6000  -15.4331    8.9636 C   0  0  0  0  0  0  0  0  0  0  0  0
   -5.4860  -14.9181    8.3865 O   0  0  0  0  0  0  0  0  0  0  0  0
   -7.1857  -16.4823    8.4053 N   0  0  0  0  0  0  0  0  0  0  0  0
   -8.2746  -17.0168    8.9349 C   0  0  0  0  0  0  0  0  0  0  0  0
   -8.8656  -18.0901    8.3552 O   0  0  0  0  0  0  0  0  0  0  0  0
   -8.8043  -16.4601   10.1113 C   0  0  0  0  0  0  0  0  0  0  0  0
   -9.9485  -16.9924   10.7033 N   0  0  0  0  0  0  0  0  0  0  0  0
   -9.9385  -18.2557   11.1739 C   0  0  0  0  0  0  0  0  0  0  0  0
   -8.9494  -18.9479   11.0355 O   0  0  0  0  0  0  0  0  0  0  0  0
  -11.1297  -18.7981   11.8585 C   0  0  0  0  0  0  0  0  0  0  0  0
  -11.1722  -19.8655   12.6302 N   0  0  0  0  0  0  0  0  0  0  0  0
  -12.3686  -20.0503   13.0618 N   0  0  0  0  0  0  0  0  0  0  0  0
  -13.1897  -19.0917   12.5833 C   0  0  0  0  0  0  0  0  0  0  0  0
  -12.4403  -18.2675   11.8157 C   0  0  0  0  0  0  0  0  0  0  0  0
  1  2  1  0
  2  3  2  0
  2  4  1  0
  4  5  2  0
  4 11  1  0
  5  6  1  0
  6  7  1  0
  6  8  2  0
  8  9  1  0
  9 10  1  0
  9 11  2  0
 11 12  1  0
 12 13  1  0
 13 14  2  0
 13 15  1  0
 15 16  2  0
 15 19  1  0
 16 17  1  0
 17 18  1  0
 18 19  2  0
M  END
>  <Gold.Gold.Protein.RotatedWaterAtoms>  (416) 


>  <Gold.Id.Protein>  (416) 


>  <Gold.PLP.Chemscore.CHOScore>  (416) 
1.0000

>  <Gold.PLP.Chemscore.Hbond>  (416) 
3.3840

>  <Gold.PLP.Chemscore.Internal.Correction>  (416) 
1.1561

>  <Gold.PLP.Chemscore.Metal>  (416) 
0.0000

>  <Gold.PLP.Fitness>  (416) 
44.2365

>  <Gold.PLP.PLP>  (416) 
-31.3594

>  <Gold.PLP.ligand.clash>  (416) 
0.0000

>  <Gold.PLP.ligand.torsion>  (416) 
0.7155

>  <Gold.PLP.part.buried>  (416) 
-6.5096

>  <Gold.PLP.part.hbond>  (416) 
-6.3638

>  <Gold.PLP.part.metal>  (416) 
0.0000

>  <Gold.PLP.part.nonpolar>  (416) 
-18.7366

>  <Gold.PLP.part.repulsive>  (416) 
0.4259

>  <Gold.Protein.RotatedAtoms>  (416) 


>  <Gold.Protein.RotatedTorsions>  (416) 


>  <Gold.Protein.RotatedWaterAtoms>  (416) 


>  <Gold.Version>  (416) 
5.3.0

>  <PLP.Chemscore.CHOScore>  (416) 


>  <PLP.Chemscore.Hbond>  (416) 


>  <PLP.Chemscore.Internal.Correction>  (416) 


>  <PLP.Chemscore.Metal>  (416) 


>  <PLP.Fitness>  (416) 


>  <PLP.PLP>  (416) 


>  <PLP.ligand.clash>  (416) 


>  <PLP.ligand.torsion>  (416) 


>  <PLP.part.buried>  (416) 


>  <PLP.part.hbond>  (416) 


>  <PLP.part.metal>  (416) 


>  <PLP.part.nonpolar>  (416) 


>  <PLP.part.repulsive>  (416) 


>  <Version>  (416) 


$$$$
3416|Compound_2102|Compounds_3D_F|sdf|611|dock9|1
     RDKit          3D

 19 20  0  0  0  0  0  0  0  0999 V2000
   -4.4007  -15.1587   12.0798 O   0  0  0  0  0  0  0  0  0  0  0  0
   -5.6840  -15.1981   12.4878 C   0  0  0  0  0  0  0  0  0  0  0  0
   -6.1017  -16.1694   13.0839 O   0  0  0  0  0  0  0  0  0  0  0  0
   -6.5832  -14.0568   12.2105 C   0  0  0  0  0  0  0  0  0  0  0  0
   -6.1018  -12.8132   12.1449 N   0  0  0  0  0  0  0  0  0  0  0  0
   -6.8979  -11.7912   11.8973 C   0  0  0  0  0  0  0  0  0  0  0  0
   -6.3667  -10.5447   11.8384 O   0  0  0  0  0  0  0  0  0  0  0  0
   -8.1996  -11.9441   11.7027 N   0  0  0  0  0  0  0  0  0  0  0  0
   -8.7596  -13.1424   11.7513 C   0  0  0  0  0  0  0  0  0  0  0  0
  -10.0924  -13.2871   11.5509 O   0  0  0  0  0  0  0  0  0  0  0  0
   -7.9510  -14.2629   12.0059 C   0  0  0  0  0  0  0  0  0  0  0  0
   -8.4993  -15.5432   12.0643 N   0  0  0  0  0  0  0  0  0  0  0  0
   -8.6370  -16.2696   10.9370 C   0  0  0  0  0  0  0  0  0  0  0  0
   -8.3316  -15.7891    9.8635 O   0  0  0  0  0  0  0  0  0  0  0  0
   -9.1582  -17.6499   11.0071 C   0  0  0  0  0  0  0  0  0  0  0  0
   -8.7732  -18.6716   10.2691 N   0  0  0  0  0  0  0  0  0  0  0  0
   -9.4349  -19.7244   10.5940 N   0  0  0  0  0  0  0  0  0  0  0  0
  -10.3074  -19.4394   11.5836 C   0  0  0  0  0  0  0  0  0  0  0  0
  -10.1608  -18.1282   11.8830 C   0  0  0  0  0  0  0  0  0  0  0  0
  1  2  1  0
  2  3  2  0
  2  4  1  0
  4  5  2  0
  4 11  1  0
  5  6  1  0
  6  7  1  0
  6  8  2  0
  8  9  1  0
  9 10  1  0
  9 11  2  0
 11 12  1  0
 12 13  1  0
 13 14  2  0
 13 15  1  0
 15 16  2  0
 15 19  1  0
 16 17  1  0
 17 18  1  0
 18 19  2  0
M  END
>  <Gold.Gold.Protein.RotatedWaterAtoms>  (417) 


>  <Gold.Id.Protein>  (417) 


>  <Gold.PLP.Chemscore.CHOScore>  (417) 
0.0000

>  <Gold.PLP.Chemscore.Hbond>  (417) 
1.6915

>  <Gold.PLP.Chemscore.Internal.Correction>  (417) 
1.1561

>  <Gold.PLP.Chemscore.Metal>  (417) 
0.0000

>  <Gold.PLP.Fitness>  (417) 
41.5898

>  <Gold.PLP.PLP>  (417) 
-38.7094

>  <Gold.PLP.ligand.clash>  (417) 
0.0000

>  <Gold.PLP.ligand.torsion>  (417) 
1.6750

>  <Gold.PLP.part.buried>  (417) 
-9.3736

>  <Gold.PLP.part.hbond>  (417) 
-4.5219

>  <Gold.PLP.part.metal>  (417) 
0.0000

>  <Gold.PLP.part.nonpolar>  (417) 
-25.7217

>  <Gold.PLP.part.repulsive>  (417) 
0.5884

>  <Gold.Protein.RotatedAtoms>  (417) 


>  <Gold.Protein.RotatedTorsions>  (417) 


>  <Gold.Protein.RotatedWaterAtoms>  (417) 


>  <Gold.Version>  (417) 
5.3.0

>  <PLP.Chemscore.CHOScore>  (417) 


>  <PLP.Chemscore.Hbond>  (417) 


>  <PLP.Chemscore.Internal.Correction>  (417) 


>  <PLP.Chemscore.Metal>  (417) 


>  <PLP.Fitness>  (417) 


>  <PLP.PLP>  (417) 


>  <PLP.ligand.clash>  (417) 


>  <PLP.ligand.torsion>  (417) 


>  <PLP.part.buried>  (417) 


>  <PLP.part.hbond>  (417) 


>  <PLP.part.metal>  (417) 


>  <PLP.part.nonpolar>  (417) 


>  <PLP.part.repulsive>  (417) 


>  <Version>  (417) 


$$$$
3417|Compound_2107|Compounds_3D_F|sdf|612|dock1|1
     RDKit          3D

 18 20  0  0  0  0  0  0  0  0999 V2000
  -11.7887  -17.6112   12.4666 O   0  0  0  0  0  0  0  0  0  0  0  0
  -10.6085  -17.7977   11.8308 C   0  0  0  0  0  0  0  0  0  0  0  0
  -10.4379  -18.8698   10.9330 C   0  0  0  0  0  0  0  0  0  0  0  0
  -11.2340  -19.8629   10.4997 N   0  0  0  0  0  0  0  0  0  0  0  0
  -10.5983  -20.6064    9.6630 N   0  0  0  0  0  0  0  0  0  0  0  0
   -9.2954  -20.1134    9.4986 N   0  0  0  0  0  0  0  0  0  0  0  0
   -9.1883  -19.0124   10.3014 C   0  0  0  0  0  0  0  0  0  0  0  0
   -8.2221  -18.1408   10.5703 N   0  0  0  0  0  0  0  0  0  0  0  0
   -8.4284  -17.1491   11.4204 C   0  0  0  0  0  0  0  0  0  0  0  0
   -9.5914  -16.9728   12.0343 N   0  0  0  0  0  0  0  0  0  0  0  0
   -7.3939  -16.2588   11.6758 N   0  0  0  0  0  0  0  0  0  0  0  0
   -7.6645  -14.9567   11.8932 C   0  0  0  0  0  0  0  0  0  0  0  0
   -8.8142  -14.5615   11.8661 O   0  0  0  0  0  0  0  0  0  0  0  0
   -6.5643  -14.0103   12.1649 C   0  0  0  0  0  0  0  0  0  0  0  0
   -5.2762  -14.2887   12.1843 N   0  0  0  0  0  0  0  0  0  0  0  0
   -4.5996  -13.2295   12.4532 N   0  0  0  0  0  0  0  0  0  0  0  0
   -5.4288  -12.1785   12.6272 C   0  0  0  0  0  0  0  0  0  0  0  0
   -6.6925  -12.6290   12.4473 C   0  0  0  0  0  0  0  0  0  0  0  0
  1  2  1  0
  2  3  2  0
  2 10  1  0
  3  4  1  0
  3  7  1  0
  4  5  2  0
  5  6  1  0
  6  7  1  0
  7  8  2  0
  8  9  1  0
  9 10  2  0
  9 11  1  0
 11 12  1  0
 12 13  2  0
 12 14  1  0
 14 15  2  0
 14 18  1  0
 15 16  1  0
 16 17  1  0
 17 18  2  0
M  END
>  <Gold.Gold.Protein.RotatedWaterAtoms>  (418) 


>  <Gold.Id.Protein>  (418) 


>  <Gold.PLP.Chemscore.CHOScore>  (418) 
0.8868

>  <Gold.PLP.Chemscore.Hbond>  (418) 
2.0000

>  <Gold.PLP.Chemscore.Internal.Correction>  (418) 
0.3987

>  <Gold.PLP.Chemscore.Metal>  (418) 
0.0000

>  <Gold.PLP.Fitness>  (418) 
41.6464

>  <Gold.PLP.PLP>  (418) 
-33.0911

>  <Gold.PLP.ligand.clash>  (418) 
0.0000

>  <Gold.PLP.ligand.torsion>  (418) 
0.2518

>  <Gold.PLP.part.buried>  (418) 
-6.7175

>  <Gold.PLP.part.hbond>  (418) 
-5.0585

>  <Gold.PLP.part.metal>  (418) 
0.0000

>  <Gold.PLP.part.nonpolar>  (418) 
-22.9405

>  <Gold.PLP.part.repulsive>  (418) 
0.6590

>  <Gold.Protein.RotatedAtoms>  (418) 


>  <Gold.Protein.RotatedTorsions>  (418) 


>  <Gold.Protein.RotatedWaterAtoms>  (418) 


>  <Gold.Version>  (418) 
5.3.0

>  <PLP.Chemscore.CHOScore>  (418) 


>  <PLP.Chemscore.Hbond>  (418) 


>  <PLP.Chemscore.Internal.Correction>  (418) 


>  <PLP.Chemscore.Metal>  (418) 


>  <PLP.Fitness>  (418) 


>  <PLP.PLP>  (418) 


>  <PLP.ligand.clash>  (418) 


>  <PLP.ligand.torsion>  (418) 


>  <PLP.part.buried>  (418) 


>  <PLP.part.hbond>  (418) 


>  <PLP.part.metal>  (418) 


>  <PLP.part.nonpolar>  (418) 


>  <PLP.part.repulsive>  (418) 


>  <Version>  (418) 


$$$$
3418|Compound_2107|Compounds_3D_F|sdf|612|dock2|1
     RDKit          3D

 18 20  0  0  0  0  0  0  0  0999 V2000
  -14.0142  -20.5218   14.3004 O   0  0  0  0  0  0  0  0  0  0  0  0
  -13.2878  -20.7396   13.1794 C   0  0  0  0  0  0  0  0  0  0  0  0
  -13.6471  -21.7605   12.2776 C   0  0  0  0  0  0  0  0  0  0  0  0
  -14.6341  -22.6729   12.2425 N   0  0  0  0  0  0  0  0  0  0  0  0
  -14.5277  -23.3991   11.1850 N   0  0  0  0  0  0  0  0  0  0  0  0
  -13.4158  -22.9778   10.4408 N   0  0  0  0  0  0  0  0  0  0  0  0
  -12.8539  -21.9392   11.1290 C   0  0  0  0  0  0  0  0  0  0  0  0
  -11.8042  -21.1477   10.9358 N   0  0  0  0  0  0  0  0  0  0  0  0
  -11.5053  -20.2016   11.8100 C   0  0  0  0  0  0  0  0  0  0  0  0
  -12.2277  -19.9936   12.9033 N   0  0  0  0  0  0  0  0  0  0  0  0
  -10.4002  -19.3949   11.5733 N   0  0  0  0  0  0  0  0  0  0  0  0
  -10.4534  -18.0791   11.8596 C   0  0  0  0  0  0  0  0  0  0  0  0
  -11.4687  -17.5985   12.3253 O   0  0  0  0  0  0  0  0  0  0  0  0
   -9.2781  -17.2216   11.6079 C   0  0  0  0  0  0  0  0  0  0  0  0
   -9.2478  -15.9042   11.6331 N   0  0  0  0  0  0  0  0  0  0  0  0
   -8.0620  -15.4848   11.3692 N   0  0  0  0  0  0  0  0  0  0  0  0
   -7.2353  -16.5300   11.1532 C   0  0  0  0  0  0  0  0  0  0  0  0
   -7.9673  -17.6590   11.3004 C   0  0  0  0  0  0  0  0  0  0  0  0
  1  2  1  0
  2  3  2  0
  2 10  1  0
  3  4  1  0
  3  7  1  0
  4  5  2  0
  5  6  1  0
  6  7  1  0
  7  8  2  0
  8  9  1  0
  9 10  2  0
  9 11  1  0
 11 12  1  0
 12 13  2  0
 12 14  1  0
 14 15  2  0
 14 18  1  0
 15 16  1  0
 16 17  1  0
 17 18  2  0
M  END
>  <Gold.Gold.Protein.RotatedWaterAtoms>  (419) 


>  <Gold.Id.Protein>  (419) 


>  <Gold.PLP.Chemscore.CHOScore>  (419) 
0.0000

>  <Gold.PLP.Chemscore.Hbond>  (419) 
5.0000

>  <Gold.PLP.Chemscore.Internal.Correction>  (419) 
0.3987

>  <Gold.PLP.Chemscore.Metal>  (419) 
0.0000

>  <Gold.PLP.Fitness>  (419) 
41.3926

>  <Gold.PLP.PLP>  (419) 
-26.7134

>  <Gold.PLP.ligand.clash>  (419) 
0.0000

>  <Gold.PLP.ligand.torsion>  (419) 
0.3597

>  <Gold.PLP.part.buried>  (419) 
-5.6997

>  <Gold.PLP.part.hbond>  (419) 
-6.8765

>  <Gold.PLP.part.metal>  (419) 
0.0000

>  <Gold.PLP.part.nonpolar>  (419) 
-14.0831

>  <Gold.PLP.part.repulsive>  (419) 
0.3991

>  <Gold.Protein.RotatedAtoms>  (419) 


>  <Gold.Protein.RotatedTorsions>  (419) 


>  <Gold.Protein.RotatedWaterAtoms>  (419) 


>  <Gold.Version>  (419) 
5.3.0

>  <PLP.Chemscore.CHOScore>  (419) 


>  <PLP.Chemscore.Hbond>  (419) 


>  <PLP.Chemscore.Internal.Correction>  (419) 


>  <PLP.Chemscore.Metal>  (419) 


>  <PLP.Fitness>  (419) 


>  <PLP.PLP>  (419) 


>  <PLP.ligand.clash>  (419) 


>  <PLP.ligand.torsion>  (419) 


>  <PLP.part.buried>  (419) 


>  <PLP.part.hbond>  (419) 


>  <PLP.part.metal>  (419) 


>  <PLP.part.nonpolar>  (419) 


>  <PLP.part.repulsive>  (419) 


>  <Version>  (419) 


$$$$
3419|Compound_2107|Compounds_3D_F|sdf|612|dock3|1
     RDKit          3D

 18 20  0  0  0  0  0  0  0  0999 V2000
  -11.5168  -17.8008   12.2756 O   0  0  0  0  0  0  0  0  0  0  0  0
  -10.2918  -17.7480   11.7025 C   0  0  0  0  0  0  0  0  0  0  0  0
   -9.8334  -18.8028   10.8890 C   0  0  0  0  0  0  0  0  0  0  0  0
  -10.3586  -19.9757   10.4939 N   0  0  0  0  0  0  0  0  0  0  0  0
   -9.5256  -20.6009    9.7373 N   0  0  0  0  0  0  0  0  0  0  0  0
   -8.3613  -19.8322    9.5919 N   0  0  0  0  0  0  0  0  0  0  0  0
   -8.5511  -18.6912   10.3199 C   0  0  0  0  0  0  0  0  0  0  0  0
   -7.8239  -17.6068   10.5665 N   0  0  0  0  0  0  0  0  0  0  0  0
   -8.2962  -16.6410   11.3366 C   0  0  0  0  0  0  0  0  0  0  0  0
   -9.5010  -16.7010   11.8892 N   0  0  0  0  0  0  0  0  0  0  0  0
   -7.5061  -15.5236   11.5710 N   0  0  0  0  0  0  0  0  0  0  0  0
   -8.0797  -14.3141   11.7268 C   0  0  0  0  0  0  0  0  0  0  0  0
   -9.2887  -14.2014   11.6623 O   0  0  0  0  0  0  0  0  0  0  0  0
   -7.2392  -13.1261   11.9764 C   0  0  0  0  0  0  0  0  0  0  0  0
   -7.6009  -11.8660   11.8400 N   0  0  0  0  0  0  0  0  0  0  0  0
   -6.6215  -11.0905   12.1417 N   0  0  0  0  0  0  0  0  0  0  0  0
   -5.5431  -11.8194   12.5001 C   0  0  0  0  0  0  0  0  0  0  0  0
   -5.8931  -13.1242   12.4145 C   0  0  0  0  0  0  0  0  0  0  0  0
  1  2  1  0
  2  3  2  0
  2 10  1  0
  3  4  1  0
  3  7  1  0
  4  5  2  0
  5  6  1  0
  6  7  1  0
  7  8  2  0
  8  9  1  0
  9 10  2  0
  9 11  1  0
 11 12  1  0
 12 13  2  0
 12 14  1  0
 14 15  2  0
 14 18  1  0
 15 16  1  0
 16 17  1  0
 17 18  2  0
M  END
>  <Gold.Gold.Protein.RotatedWaterAtoms>  (420) 


>  <Gold.Id.Protein>  (420) 


>  <Gold.PLP.Chemscore.CHOScore>  (420) 
1.0000

>  <Gold.PLP.Chemscore.Hbond>  (420) 
1.8075

>  <Gold.PLP.Chemscore.Internal.Correction>  (420) 
0.3987

>  <Gold.PLP.Chemscore.Metal>  (420) 
0.0000

>  <Gold.PLP.Fitness>  (420) 
43.8706

>  <Gold.PLP.PLP>  (420) 
-35.7641

>  <Gold.PLP.ligand.clash>  (420) 
0.0000

>  <Gold.PLP.ligand.torsion>  (420) 
0.3574

>  <Gold.PLP.part.buried>  (420) 
-8.6267

>  <Gold.PLP.part.hbond>  (420) 
-4.0000

>  <Gold.PLP.part.metal>  (420) 
0.0000

>  <Gold.PLP.part.nonpolar>  (420) 
-23.8230

>  <Gold.PLP.part.repulsive>  (420) 
0.5516

>  <Gold.Protein.RotatedAtoms>  (420) 


>  <Gold.Protein.RotatedTorsions>  (420) 


>  <Gold.Protein.RotatedWaterAtoms>  (420) 


>  <Gold.Version>  (420) 
5.3.0

>  <PLP.Chemscore.CHOScore>  (420) 


>  <PLP.Chemscore.Hbond>  (420) 


>  <PLP.Chemscore.Internal.Correction>  (420) 


>  <PLP.Chemscore.Metal>  (420) 


>  <PLP.Fitness>  (420) 


>  <PLP.PLP>  (420) 


>  <PLP.ligand.clash>  (420) 


>  <PLP.ligand.torsion>  (420) 


>  <PLP.part.buried>  (420) 


>  <PLP.part.hbond>  (420) 


>  <PLP.part.metal>  (420) 


>  <PLP.part.nonpolar>  (420) 


>  <PLP.part.repulsive>  (420) 


>  <Version>  (420) 


$$$$
3420|Compound_2107|Compounds_3D_F|sdf|612|dock4|1
     RDKit          3D

 18 20  0  0  0  0  0  0  0  0999 V2000
  -11.5912  -17.7545   12.1948 O   0  0  0  0  0  0  0  0  0  0  0  0
  -10.3030  -17.7559   11.7795 C   0  0  0  0  0  0  0  0  0  0  0  0
   -9.7524  -18.8897   11.1504 C   0  0  0  0  0  0  0  0  0  0  0  0
  -10.2313  -20.1023   10.8219 N   0  0  0  0  0  0  0  0  0  0  0  0
   -9.3134  -20.8003   10.2497 N   0  0  0  0  0  0  0  0  0  0  0  0
   -8.1347  -20.0439   10.1705 N   0  0  0  0  0  0  0  0  0  0  0  0
   -8.4074  -18.8318   10.7400 C   0  0  0  0  0  0  0  0  0  0  0  0
   -7.7099  -17.7219   10.9573 N   0  0  0  0  0  0  0  0  0  0  0  0
   -8.2695  -16.6814   11.5515 C   0  0  0  0  0  0  0  0  0  0  0  0
   -9.5350  -16.6893   11.9500 N   0  0  0  0  0  0  0  0  0  0  0  0
   -7.5078  -15.5396   11.7614 N   0  0  0  0  0  0  0  0  0  0  0  0
   -8.0952  -14.3268   11.7494 C   0  0  0  0  0  0  0  0  0  0  0  0
   -9.2919  -14.2324   11.5551 O   0  0  0  0  0  0  0  0  0  0  0  0
   -7.2850  -13.1128   11.9728 C   0  0  0  0  0  0  0  0  0  0  0  0
   -7.6668  -11.8669   11.7748 N   0  0  0  0  0  0  0  0  0  0  0  0
   -6.7112  -11.0601   12.0711 N   0  0  0  0  0  0  0  0  0  0  0  0
   -5.6297  -11.7519   12.4886 C   0  0  0  0  0  0  0  0  0  0  0  0
   -5.9521  -13.0658   12.4472 C   0  0  0  0  0  0  0  0  0  0  0  0
  1  2  1  0
  2  3  2  0
  2 10  1  0
  3  4  1  0
  3  7  1  0
  4  5  2  0
  5  6  1  0
  6  7  1  0
  7  8  2  0
  8  9  1  0
  9 10  2  0
  9 11  1  0
 11 12  1  0
 12 13  2  0
 12 14  1  0
 14 15  2  0
 14 18  1  0
 15 16  1  0
 16 17  1  0
 17 18  2  0
M  END
>  <Gold.Gold.Protein.RotatedWaterAtoms>  (421) 


>  <Gold.Id.Protein>  (421) 


>  <Gold.PLP.Chemscore.CHOScore>  (421) 
1.0000

>  <Gold.PLP.Chemscore.Hbond>  (421) 
1.7426

>  <Gold.PLP.Chemscore.Internal.Correction>  (421) 
0.3987

>  <Gold.PLP.Chemscore.Metal>  (421) 
0.0000

>  <Gold.PLP.Fitness>  (421) 
44.6057

>  <Gold.PLP.PLP>  (421) 
-36.5205

>  <Gold.PLP.ligand.clash>  (421) 
0.0000

>  <Gold.PLP.ligand.torsion>  (421) 
0.2706

>  <Gold.PLP.part.buried>  (421) 
-8.9799

>  <Gold.PLP.part.hbond>  (421) 
-4.0000

>  <Gold.PLP.part.metal>  (421) 
0.0000

>  <Gold.PLP.part.nonpolar>  (421) 
-24.4852

>  <Gold.PLP.part.repulsive>  (421) 
0.5329

>  <Gold.Protein.RotatedAtoms>  (421) 


>  <Gold.Protein.RotatedTorsions>  (421) 


>  <Gold.Protein.RotatedWaterAtoms>  (421) 


>  <Gold.Version>  (421) 
5.3.0

>  <PLP.Chemscore.CHOScore>  (421) 


>  <PLP.Chemscore.Hbond>  (421) 


>  <PLP.Chemscore.Internal.Correction>  (421) 


>  <PLP.Chemscore.Metal>  (421) 


>  <PLP.Fitness>  (421) 


>  <PLP.PLP>  (421) 


>  <PLP.ligand.clash>  (421) 


>  <PLP.ligand.torsion>  (421) 


>  <PLP.part.buried>  (421) 


>  <PLP.part.hbond>  (421) 


>  <PLP.part.metal>  (421) 


>  <PLP.part.nonpolar>  (421) 


>  <PLP.part.repulsive>  (421) 


>  <Version>  (421) 


$$$$
3421|Compound_2110|Compounds_3D_F|sdf|613|dock1|1
     RDKit          3D

 39 44  0  0  0  0  0  0  0  0999 V2000
   -8.4185  -19.9647    7.3435 O   0  0  0  0  0  0  0  0  0  0  0  0
   -8.5761  -19.6924    8.6613 C   0  0  0  0  0  0  0  0  0  0  0  0
   -9.1687  -20.6305    9.5200 C   0  0  0  0  0  0  0  0  0  0  0  0
   -9.6823  -21.8762    9.3611 N   0  0  0  0  0  0  0  0  0  0  0  0
  -10.1159  -22.3148   10.5068 C   0  0  0  0  0  0  0  0  0  0  0  0
   -9.9072  -21.3768   11.4750 N   0  0  0  0  0  0  0  0  0  0  0  0
   -9.3073  -20.2959   10.8788 C   0  0  0  0  0  0  0  0  0  0  0  0
   -8.8761  -19.1131   11.3005 N   0  0  0  0  0  0  0  0  0  0  0  0
   -8.3231  -18.2591   10.4556 C   0  0  0  0  0  0  0  0  0  0  0  0
   -8.1698  -18.5360    9.1671 N   0  0  0  0  0  0  0  0  0  0  0  0
   -7.8855  -17.0301   10.9341 N   0  0  0  0  0  0  0  0  0  0  0  0
   -6.5698  -16.8108   11.1237 C   0  0  0  0  0  0  0  0  0  0  0  0
   -5.7651  -17.6881   10.8759 O   0  0  0  0  0  0  0  0  0  0  0  0
   -6.1062  -15.5087   11.6328 C   0  0  0  0  0  0  0  0  0  0  0  0
   -4.9332  -15.2421   12.1668 N   0  0  0  0  0  0  0  0  0  0  0  0
   -4.8318  -14.0106   12.5151 N   0  0  0  0  0  0  0  0  0  0  0  0
   -5.9801  -13.3188   12.2320 C   0  0  0  0  0  0  0  0  0  0  0  0
   -6.8601  -14.2479   11.6429 C   0  0  0  0  0  0  0  0  0  0  0  0
   -8.1301  -13.8465   11.2368 C   0  0  0  0  0  0  0  0  0  0  0  0
   -8.5135  -12.5460   11.4152 C   0  0  0  0  0  0  0  0  0  0  0  0
   -7.6474  -11.6277   11.9962 C   0  0  0  0  0  0  0  0  0  0  0  0
   -6.3954  -12.0010   12.3971 C   0  0  0  0  0  0  0  0  0  0  0  0
  -10.2591  -21.4998   12.8920 C   0  0  0  0  0  0  0  0  0  0  0  0
   -9.4960  -22.5668   13.4958 O   0  0  0  0  0  0  0  0  0  0  0  0
  -10.3984  -23.4799   14.0945 C   0  0  0  0  0  0  0  0  0  0  0  0
   -9.9632  -24.9271   14.1874 C   0  0  0  0  0  0  0  0  0  0  0  0
  -10.9759  -25.6192   14.9567 O   0  0  0  0  0  0  0  0  0  0  0  0
  -12.5460  -25.4490   14.5789 P   0  0  0  0  0  0  0  0  0  0  0  0
  -13.3810  -25.6753   15.7796 O   0  0  0  0  0  0  0  0  0  0  0  0
  -12.9506  -26.4940   13.4234 O   0  0  0  0  0  0  0  0  0  0  0  0
  -12.7415  -23.9204   14.0452 O   0  0  0  0  0  0  0  0  0  0  0  0
  -11.6824  -23.3943   13.2267 C   0  0  0  0  0  0  0  0  0  0  0  0
  -11.7610  -21.8649   13.0320 C   0  0  0  0  0  0  0  0  0  0  0  0
  -12.5059  -21.5302   11.8313 O   0  0  0  0  0  0  0  0  0  0  0  0
  -13.8408  -21.4524   11.9431 C   0  0  0  0  0  0  0  0  0  0  0  0
  -14.4127  -22.0864   12.7979 O   0  0  0  0  0  0  0  0  0  0  0  0
  -14.6270  -20.5751   11.0039 C   0  0  0  0  0  0  0  0  0  0  0  0
  -13.6698  -19.8758   10.0368 C   0  0  0  0  0  0  0  0  0  0  0  0
  -14.4450  -18.8568    9.2002 C   0  0  0  0  0  0  0  0  0  0  0  0
  1  2  1  0
  2  3  2  0
  2 10  1  0
  3  4  1  0
  3  7  1  0
  4  5  2  0
  5  6  1  0
  6  7  1  0
  6 23  1  0
  7  8  2  0
  8  9  1  0
  9 10  2  0
  9 11  1  0
 11 12  1  0
 12 13  2  0
 12 14  1  0
 14 15  2  0
 14 18  1  0
 15 16  1  0
 16 17  1  0
 17 18  2  0
 17 22  1  0
 18 19  1  0
 19 20  2  0
 20 21  1  0
 21 22  2  0
 23 24  1  0
 23 33  1  0
 24 25  1  0
 25 26  1  0
 25 32  1  0
 26 27  1  0
 27 28  1  0
 28 29  2  0
 28 30  1  0
 28 31  1  0
 31 32  1  0
 32 33  1  0
 33 34  1  0
 34 35  1  0
 35 36  2  0
 35 37  1  0
 37 38  1  0
 38 39  1  0
M  END
>  <Gold.Gold.Protein.RotatedWaterAtoms>  (422) 


>  <Gold.Id.Protein>  (422) 


>  <Gold.PLP.Chemscore.CHOScore>  (422) 
0.0000

>  <Gold.PLP.Chemscore.Hbond>  (422) 
2.7458

>  <Gold.PLP.Chemscore.Internal.Correction>  (422) 
0.7218

>  <Gold.PLP.Chemscore.Metal>  (422) 
0.0000

>  <Gold.PLP.Fitness>  (422) 
65.9401

>  <Gold.PLP.PLP>  (422) 
-59.9617

>  <Gold.PLP.ligand.clash>  (422) 
0.0000

>  <Gold.PLP.ligand.torsion>  (422) 
1.4904

>  <Gold.PLP.part.buried>  (422) 
-6.9270

>  <Gold.PLP.part.hbond>  (422) 
-6.3443

>  <Gold.PLP.part.metal>  (422) 
0.0000

>  <Gold.PLP.part.nonpolar>  (422) 
-47.1245

>  <Gold.PLP.part.repulsive>  (422) 
0.4885

>  <Gold.Protein.RotatedAtoms>  (422) 


>  <Gold.Protein.RotatedTorsions>  (422) 


>  <Gold.Protein.RotatedWaterAtoms>  (422) 


>  <Gold.Version>  (422) 
5.3.0

>  <PLP.Chemscore.CHOScore>  (422) 


>  <PLP.Chemscore.Hbond>  (422) 


>  <PLP.Chemscore.Internal.Correction>  (422) 


>  <PLP.Chemscore.Metal>  (422) 


>  <PLP.Fitness>  (422) 


>  <PLP.PLP>  (422) 


>  <PLP.ligand.clash>  (422) 


>  <PLP.ligand.torsion>  (422) 


>  <PLP.part.buried>  (422) 


>  <PLP.part.hbond>  (422) 


>  <PLP.part.metal>  (422) 


>  <PLP.part.nonpolar>  (422) 


>  <PLP.part.repulsive>  (422) 


>  <Version>  (422) 


$$$$
3422|Compound_2110|Compounds_3D_F|sdf|613|dock2|1
     RDKit          3D

 39 44  0  0  0  0  0  0  0  0999 V2000
  -12.9817  -18.1944   10.3361 O   0  0  0  0  0  0  0  0  0  0  0  0
  -11.6996  -18.5261   10.6221 C   0  0  0  0  0  0  0  0  0  0  0  0
  -11.2759  -19.8623   10.5628 C   0  0  0  0  0  0  0  0  0  0  0  0
  -11.8780  -21.0401   10.2611 N   0  0  0  0  0  0  0  0  0  0  0  0
  -11.0126  -22.0066   10.3610 C   0  0  0  0  0  0  0  0  0  0  0  0
   -9.7982  -21.5090   10.7334 N   0  0  0  0  0  0  0  0  0  0  0  0
   -9.9340  -20.1501   10.8694 C   0  0  0  0  0  0  0  0  0  0  0  0
   -9.1193  -19.1558   11.2019 N   0  0  0  0  0  0  0  0  0  0  0  0
   -9.5618  -17.9103   11.2449 C   0  0  0  0  0  0  0  0  0  0  0  0
  -10.8185  -17.5946   10.9598 N   0  0  0  0  0  0  0  0  0  0  0  0
   -8.6794  -16.8968   11.5989 N   0  0  0  0  0  0  0  0  0  0  0  0
   -7.3716  -17.0052   11.2938 C   0  0  0  0  0  0  0  0  0  0  0  0
   -6.9633  -17.9897   10.7085 O   0  0  0  0  0  0  0  0  0  0  0  0
   -6.4362  -15.9318   11.6708 C   0  0  0  0  0  0  0  0  0  0  0  0
   -5.1429  -16.0505   11.8839 N   0  0  0  0  0  0  0  0  0  0  0  0
   -4.6023  -14.9295   12.1991 N   0  0  0  0  0  0  0  0  0  0  0  0
   -5.5299  -13.9215   12.2260 C   0  0  0  0  0  0  0  0  0  0  0  0
   -6.7604  -14.5144   11.8810 C   0  0  0  0  0  0  0  0  0  0  0  0
   -7.9159  -13.7399   11.8194 C   0  0  0  0  0  0  0  0  0  0  0  0
   -7.8449  -12.4026   12.0963 C   0  0  0  0  0  0  0  0  0  0  0  0
   -6.6323  -11.8155   12.4370 C   0  0  0  0  0  0  0  0  0  0  0  0
   -5.4865  -12.5576   12.4983 C   0  0  0  0  0  0  0  0  0  0  0  0
   -8.5730  -22.2831   10.9492 C   0  0  0  0  0  0  0  0  0  0  0  0
   -8.2235  -22.9945    9.7421 O   0  0  0  0  0  0  0  0  0  0  0  0
   -8.1049  -24.3716   10.0519 C   0  0  0  0  0  0  0  0  0  0  0  0
   -8.4075  -25.3611    8.9467 C   0  0  0  0  0  0  0  0  0  0  0  0
   -8.0774  -26.6742    9.4597 O   0  0  0  0  0  0  0  0  0  0  0  0
   -8.6351  -27.1479   10.9094 P   0  0  0  0  0  0  0  0  0  0  0  0
   -7.7245  -28.1569   11.4949 O   0  0  0  0  0  0  0  0  0  0  0  0
  -10.1135  -27.7656   10.7554 O   0  0  0  0  0  0  0  0  0  0  0  0
   -8.6782  -25.8211   11.8566 O   0  0  0  0  0  0  0  0  0  0  0  0
   -9.0996  -24.6017   11.2209 C   0  0  0  0  0  0  0  0  0  0  0  0
   -8.8068  -23.3402   12.0612 C   0  0  0  0  0  0  0  0  0  0  0  0
   -9.9438  -22.9946   12.8957 O   0  0  0  0  0  0  0  0  0  0  0  0
   -9.8305  -23.2339   14.2111 C   0  0  0  0  0  0  0  0  0  0  0  0
   -8.8818  -23.8522   14.6324 O   0  0  0  0  0  0  0  0  0  0  0  0
  -10.8849  -22.7321   15.1631 C   0  0  0  0  0  0  0  0  0  0  0  0
  -11.4942  -21.4401   14.6154 C   0  0  0  0  0  0  0  0  0  0  0  0
  -12.8643  -21.2116   15.2554 C   0  0  0  0  0  0  0  0  0  0  0  0
  1  2  1  0
  2  3  2  0
  2 10  1  0
  3  4  1  0
  3  7  1  0
  4  5  2  0
  5  6  1  0
  6  7  1  0
  6 23  1  0
  7  8  2  0
  8  9  1  0
  9 10  2  0
  9 11  1  0
 11 12  1  0
 12 13  2  0
 12 14  1  0
 14 15  2  0
 14 18  1  0
 15 16  1  0
 16 17  1  0
 17 18  2  0
 17 22  1  0
 18 19  1  0
 19 20  2  0
 20 21  1  0
 21 22  2  0
 23 24  1  0
 23 33  1  0
 24 25  1  0
 25 26  1  0
 25 32  1  0
 26 27  1  0
 27 28  1  0
 28 29  2  0
 28 30  1  0
 28 31  1  0
 31 32  1  0
 32 33  1  0
 33 34  1  0
 34 35  1  0
 35 36  2  0
 35 37  1  0
 37 38  1  0
 38 39  1  0
M  END
>  <Gold.Gold.Protein.RotatedWaterAtoms>  (423) 


>  <Gold.Id.Protein>  (423) 


>  <Gold.PLP.Chemscore.CHOScore>  (423) 
0.0000

>  <Gold.PLP.Chemscore.Hbond>  (423) 
3.0000

>  <Gold.PLP.Chemscore.Internal.Correction>  (423) 
0.6986

>  <Gold.PLP.Chemscore.Metal>  (423) 
0.0000

>  <Gold.PLP.Fitness>  (423) 
69.8210

>  <Gold.PLP.PLP>  (423) 
-63.3902

>  <Gold.PLP.ligand.clash>  (423) 
0.0000

>  <Gold.PLP.ligand.torsion>  (423) 
1.6339

>  <Gold.PLP.part.buried>  (423) 
-12.1778

>  <Gold.PLP.part.hbond>  (423) 
-4.4419

>  <Gold.PLP.part.metal>  (423) 
0.0000

>  <Gold.PLP.part.nonpolar>  (423) 
-47.2391

>  <Gold.PLP.part.repulsive>  (423) 
0.3165

>  <Gold.Protein.RotatedAtoms>  (423) 


>  <Gold.Protein.RotatedTorsions>  (423) 


>  <Gold.Protein.RotatedWaterAtoms>  (423) 


>  <Gold.Version>  (423) 
5.3.0

>  <PLP.Chemscore.CHOScore>  (423) 


>  <PLP.Chemscore.Hbond>  (423) 


>  <PLP.Chemscore.Internal.Correction>  (423) 


>  <PLP.Chemscore.Metal>  (423) 


>  <PLP.Fitness>  (423) 


>  <PLP.PLP>  (423) 


>  <PLP.ligand.clash>  (423) 


>  <PLP.ligand.torsion>  (423) 


>  <PLP.part.buried>  (423) 


>  <PLP.part.hbond>  (423) 


>  <PLP.part.metal>  (423) 


>  <PLP.part.nonpolar>  (423) 


>  <PLP.part.repulsive>  (423) 


>  <Version>  (423) 


$$$$
3423|Compound_2110|Compounds_3D_F|sdf|613|dock3|1
     RDKit          3D

 39 44  0  0  0  0  0  0  0  0999 V2000
   -8.6967  -21.1849    9.4333 O   0  0  0  0  0  0  0  0  0  0  0  0
   -9.2953  -20.5110   10.4448 C   0  0  0  0  0  0  0  0  0  0  0  0
   -9.9077  -21.2019   11.5012 C   0  0  0  0  0  0  0  0  0  0  0  0
  -10.0773  -22.5118   11.8113 N   0  0  0  0  0  0  0  0  0  0  0  0
  -10.7323  -22.6101   12.9312 C   0  0  0  0  0  0  0  0  0  0  0  0
  -11.0245  -21.3672   13.4116 N   0  0  0  0  0  0  0  0  0  0  0  0
  -10.5139  -20.4524   12.5251 C   0  0  0  0  0  0  0  0  0  0  0  0
  -10.4866  -19.1266   12.4586 N   0  0  0  0  0  0  0  0  0  0  0  0
   -9.8975  -18.5167   11.4437 C   0  0  0  0  0  0  0  0  0  0  0  0
   -9.3108  -19.1852   10.4592 N   0  0  0  0  0  0  0  0  0  0  0  0
   -9.8909  -17.1276   11.4082 N   0  0  0  0  0  0  0  0  0  0  0  0
   -8.7273  -16.4566   11.5128 C   0  0  0  0  0  0  0  0  0  0  0  0
   -7.6828  -17.0664   11.6381 O   0  0  0  0  0  0  0  0  0  0  0  0
   -8.7207  -14.9841   11.4771 C   0  0  0  0  0  0  0  0  0  0  0  0
   -9.7078  -14.1991   11.1009 N   0  0  0  0  0  0  0  0  0  0  0  0
   -9.3924  -12.9573   11.1814 N   0  0  0  0  0  0  0  0  0  0  0  0
   -8.1100  -12.7996   11.6375 C   0  0  0  0  0  0  0  0  0  0  0  0
   -7.6117  -14.0988   11.8574 C   0  0  0  0  0  0  0  0  0  0  0  0
   -6.3142  -14.2784   12.3297 C   0  0  0  0  0  0  0  0  0  0  0  0
   -5.5310  -13.1850   12.5769 C   0  0  0  0  0  0  0  0  0  0  0  0
   -6.0202  -11.9025   12.3605 C   0  0  0  0  0  0  0  0  0  0  0  0
   -7.2923  -11.7053   11.9018 C   0  0  0  0  0  0  0  0  0  0  0  0
  -11.7509  -21.0637   14.6474 C   0  0  0  0  0  0  0  0  0  0  0  0
  -11.0856  -21.6801   15.7711 O   0  0  0  0  0  0  0  0  0  0  0  0
  -12.0219  -22.4940   16.4549 C   0  0  0  0  0  0  0  0  0  0  0  0
  -11.4843  -23.7010   17.1941 C   0  0  0  0  0  0  0  0  0  0  0  0
  -12.5970  -24.2757   17.9205 O   0  0  0  0  0  0  0  0  0  0  0  0
  -14.0033  -24.5670   17.1625 P   0  0  0  0  0  0  0  0  0  0  0  0
  -15.1178  -24.5303   18.1355 O   0  0  0  0  0  0  0  0  0  0  0  0
  -13.9518  -26.0045   16.4401 O   0  0  0  0  0  0  0  0  0  0  0  0
  -14.1954  -23.3884   16.0518 O   0  0  0  0  0  0  0  0  0  0  0  0
  -13.0072  -22.9735   15.3557 C   0  0  0  0  0  0  0  0  0  0  0  0
  -13.1844  -21.6540   14.5743 C   0  0  0  0  0  0  0  0  0  0  0  0
  -13.5868  -21.9107   13.2029 O   0  0  0  0  0  0  0  0  0  0  0  0
  -13.5341  -20.8778   12.3479 C   0  0  0  0  0  0  0  0  0  0  0  0
  -13.2768  -19.7699   12.7553 O   0  0  0  0  0  0  0  0  0  0  0  0
  -13.7951  -21.0986   10.8806 C   0  0  0  0  0  0  0  0  0  0  0  0
  -13.5882  -19.7864   10.1220 C   0  0  0  0  0  0  0  0  0  0  0  0
  -14.5125  -19.7506    8.9040 C   0  0  0  0  0  0  0  0  0  0  0  0
  1  2  1  0
  2  3  2  0
  2 10  1  0
  3  4  1  0
  3  7  1  0
  4  5  2  0
  5  6  1  0
  6  7  1  0
  6 23  1  0
  7  8  2  0
  8  9  1  0
  9 10  2  0
  9 11  1  0
 11 12  1  0
 12 13  2  0
 12 14  1  0
 14 15  2  0
 14 18  1  0
 15 16  1  0
 16 17  1  0
 17 18  2  0
 17 22  1  0
 18 19  1  0
 19 20  2  0
 20 21  1  0
 21 22  2  0
 23 24  1  0
 23 33  1  0
 24 25  1  0
 25 26  1  0
 25 32  1  0
 26 27  1  0
 27 28  1  0
 28 29  2  0
 28 30  1  0
 28 31  1  0
 31 32  1  0
 32 33  1  0
 33 34  1  0
 34 35  1  0
 35 36  2  0
 35 37  1  0
 37 38  1  0
 38 39  1  0
M  END
>  <Gold.Gold.Protein.RotatedWaterAtoms>  (424) 


>  <Gold.Id.Protein>  (424) 


>  <Gold.PLP.Chemscore.CHOScore>  (424) 
0.0000

>  <Gold.PLP.Chemscore.Hbond>  (424) 
1.7808

>  <Gold.PLP.Chemscore.Internal.Correction>  (424) 
0.6986

>  <Gold.PLP.Chemscore.Metal>  (424) 
0.0000

>  <Gold.PLP.Fitness>  (424) 
76.7104

>  <Gold.PLP.PLP>  (424) 
-72.6844

>  <Gold.PLP.ligand.clash>  (424) 
0.0000

>  <Gold.PLP.ligand.torsion>  (424) 
1.0075

>  <Gold.PLP.part.buried>  (424) 
-8.2992

>  <Gold.PLP.part.hbond>  (424) 
-5.0721

>  <Gold.PLP.part.metal>  (424) 
0.0000

>  <Gold.PLP.part.nonpolar>  (424) 
-60.3337

>  <Gold.PLP.part.repulsive>  (424) 
1.7184

>  <Gold.Protein.RotatedAtoms>  (424) 


>  <Gold.Protein.RotatedTorsions>  (424) 


>  <Gold.Protein.RotatedWaterAtoms>  (424) 


>  <Gold.Version>  (424) 
5.3.0

>  <PLP.Chemscore.CHOScore>  (424) 


>  <PLP.Chemscore.Hbond>  (424) 


>  <PLP.Chemscore.Internal.Correction>  (424) 


>  <PLP.Chemscore.Metal>  (424) 


>  <PLP.Fitness>  (424) 


>  <PLP.PLP>  (424) 


>  <PLP.ligand.clash>  (424) 


>  <PLP.ligand.torsion>  (424) 


>  <PLP.part.buried>  (424) 


>  <PLP.part.hbond>  (424) 


>  <PLP.part.metal>  (424) 


>  <PLP.part.nonpolar>  (424) 


>  <PLP.part.repulsive>  (424) 


>  <Version>  (424) 


$$$$
3424|Compound_2110|Compounds_3D_F|sdf|613|dock4|1
     RDKit          3D

 39 44  0  0  0  0  0  0  0  0999 V2000
  -12.1315  -17.9986   10.0762 O   0  0  0  0  0  0  0  0  0  0  0  0
  -10.8835  -18.4415   10.3623 C   0  0  0  0  0  0  0  0  0  0  0  0
  -10.6131  -19.8158   10.4435 C   0  0  0  0  0  0  0  0  0  0  0  0
  -11.3536  -20.9429   10.2943 N   0  0  0  0  0  0  0  0  0  0  0  0
  -10.5972  -21.9853   10.4793 C   0  0  0  0  0  0  0  0  0  0  0  0
   -9.3212  -21.5923   10.7589 N   0  0  0  0  0  0  0  0  0  0  0  0
   -9.3000  -20.2201   10.7434 C   0  0  0  0  0  0  0  0  0  0  0  0
   -8.3674  -19.2953   10.9381 N   0  0  0  0  0  0  0  0  0  0  0  0
   -8.6672  -18.0101   10.8515 C   0  0  0  0  0  0  0  0  0  0  0  0
   -9.8917  -17.5857   10.5674 N   0  0  0  0  0  0  0  0  0  0  0  0
   -7.6645  -17.0717   11.0635 N   0  0  0  0  0  0  0  0  0  0  0  0
   -7.9424  -15.9237   11.7116 C   0  0  0  0  0  0  0  0  0  0  0  0
   -9.0705  -15.7087   12.1112 O   0  0  0  0  0  0  0  0  0  0  0  0
   -6.8799  -14.9282   11.9346 C   0  0  0  0  0  0  0  0  0  0  0  0
   -5.6045  -15.1700   12.1509 N   0  0  0  0  0  0  0  0  0  0  0  0
   -4.9300  -14.0892   12.3095 N   0  0  0  0  0  0  0  0  0  0  0  0
   -5.7334  -12.9838   12.2095 C   0  0  0  0  0  0  0  0  0  0  0  0
   -7.0323  -13.4673   11.9567 C   0  0  0  0  0  0  0  0  0  0  0  0
   -8.0912  -12.5764   11.8019 C   0  0  0  0  0  0  0  0  0  0  0  0
   -7.8587  -11.2322   11.8976 C   0  0  0  0  0  0  0  0  0  0  0  0
   -6.5785  -10.7529   12.1470 C   0  0  0  0  0  0  0  0  0  0  0  0
   -5.5254  -11.6108   12.2973 C   0  0  0  0  0  0  0  0  0  0  0  0
   -8.1815  -22.4733   11.0272 C   0  0  0  0  0  0  0  0  0  0  0  0
   -7.8228  -23.1904    9.8262 O   0  0  0  0  0  0  0  0  0  0  0  0
   -7.8408  -24.5780   10.1107 C   0  0  0  0  0  0  0  0  0  0  0  0
   -8.1606  -25.5177    8.9673 C   0  0  0  0  0  0  0  0  0  0  0  0
   -7.9748  -26.8634    9.4683 O   0  0  0  0  0  0  0  0  0  0  0  0
   -8.6561  -27.3129   10.8721 P   0  0  0  0  0  0  0  0  0  0  0  0
   -7.8714  -28.4073   11.4858 O   0  0  0  0  0  0  0  0  0  0  0  0
  -10.1700  -27.7975   10.6190 O   0  0  0  0  0  0  0  0  0  0  0  0
   -8.6420  -26.0045   11.8455 O   0  0  0  0  0  0  0  0  0  0  0  0
   -8.9193  -24.7421   11.2148 C   0  0  0  0  0  0  0  0  0  0  0  0
   -8.5704  -23.5259   12.0993 C   0  0  0  0  0  0  0  0  0  0  0  0
   -9.7213  -23.0983   12.8745 O   0  0  0  0  0  0  0  0  0  0  0  0
   -9.9523  -23.7412   14.0294 C   0  0  0  0  0  0  0  0  0  0  0  0
   -9.0832  -24.4158   14.5287 O   0  0  0  0  0  0  0  0  0  0  0  0
  -11.2941  -23.6224   14.7041 C   0  0  0  0  0  0  0  0  0  0  0  0
  -11.2133  -22.5812   15.8220 C   0  0  0  0  0  0  0  0  0  0  0  0
  -11.5490  -21.2001   15.2572 C   0  0  0  0  0  0  0  0  0  0  0  0
  1  2  1  0
  2  3  2  0
  2 10  1  0
  3  4  1  0
  3  7  1  0
  4  5  2  0
  5  6  1  0
  6  7  1  0
  6 23  1  0
  7  8  2  0
  8  9  1  0
  9 10  2  0
  9 11  1  0
 11 12  1  0
 12 13  2  0
 12 14  1  0
 14 15  2  0
 14 18  1  0
 15 16  1  0
 16 17  1  0
 17 18  2  0
 17 22  1  0
 18 19  1  0
 19 20  2  0
 20 21  1  0
 21 22  2  0
 23 24  1  0
 23 33  1  0
 24 25  1  0
 25 26  1  0
 25 32  1  0
 26 27  1  0
 27 28  1  0
 28 29  2  0
 28 30  1  0
 28 31  1  0
 31 32  1  0
 32 33  1  0
 33 34  1  0
 34 35  1  0
 35 36  2  0
 35 37  1  0
 37 38  1  0
 38 39  1  0
M  END
>  <Gold.Gold.Protein.RotatedWaterAtoms>  (425) 


>  <Gold.Id.Protein>  (425) 


>  <Gold.PLP.Chemscore.CHOScore>  (425) 
0.0000

>  <Gold.PLP.Chemscore.Hbond>  (425) 
1.4275

>  <Gold.PLP.Chemscore.Internal.Correction>  (425) 
0.6986

>  <Gold.PLP.Chemscore.Metal>  (425) 
0.0000

>  <Gold.PLP.Fitness>  (425) 
63.9706

>  <Gold.PLP.PLP>  (425) 
-62.5489

>  <Gold.PLP.ligand.clash>  (425) 
0.0000

>  <Gold.PLP.ligand.torsion>  (425) 
1.7797

>  <Gold.PLP.part.buried>  (425) 
-12.5422

>  <Gold.PLP.part.hbond>  (425) 
-5.3060

>  <Gold.PLP.part.metal>  (425) 
0.0000

>  <Gold.PLP.part.nonpolar>  (425) 
-47.2761

>  <Gold.PLP.part.repulsive>  (425) 
0.3775

>  <Gold.Protein.RotatedAtoms>  (425) 


>  <Gold.Protein.RotatedTorsions>  (425) 


>  <Gold.Protein.RotatedWaterAtoms>  (425) 


>  <Gold.Version>  (425) 
5.3.0

>  <PLP.Chemscore.CHOScore>  (425) 


>  <PLP.Chemscore.Hbond>  (425) 


>  <PLP.Chemscore.Internal.Correction>  (425) 


>  <PLP.Chemscore.Metal>  (425) 


>  <PLP.Fitness>  (425) 


>  <PLP.PLP>  (425) 


>  <PLP.ligand.clash>  (425) 


>  <PLP.ligand.torsion>  (425) 


>  <PLP.part.buried>  (425) 


>  <PLP.part.hbond>  (425) 


>  <PLP.part.metal>  (425) 


>  <PLP.part.nonpolar>  (425) 


>  <PLP.part.repulsive>  (425) 


>  <Version>  (425) 


$$$$
3425|Compound_2110|Compounds_3D_F|sdf|613|dock5|1
     RDKit          3D

 39 44  0  0  0  0  0  0  0  0999 V2000
   -8.7387  -20.8953    8.7289 O   0  0  0  0  0  0  0  0  0  0  0  0
   -9.2460  -20.2639    9.8149 C   0  0  0  0  0  0  0  0  0  0  0  0
   -9.8027  -20.9971   10.8738 C   0  0  0  0  0  0  0  0  0  0  0  0
   -9.9872  -22.3176   11.1247 N   0  0  0  0  0  0  0  0  0  0  0  0
  -10.5651  -22.4616   12.2815 C   0  0  0  0  0  0  0  0  0  0  0  0
  -10.7880  -21.2405   12.8472 N   0  0  0  0  0  0  0  0  0  0  0  0
  -10.3147  -20.2908   11.9767 C   0  0  0  0  0  0  0  0  0  0  0  0
  -10.2547  -18.9644   11.9794 N   0  0  0  0  0  0  0  0  0  0  0  0
   -9.7207  -18.3138   10.9592 C   0  0  0  0  0  0  0  0  0  0  0  0
   -9.2231  -18.9410    9.9012 N   0  0  0  0  0  0  0  0  0  0  0  0
   -9.6774  -16.9255   10.9977 N   0  0  0  0  0  0  0  0  0  0  0  0
   -8.5895  -16.2987   11.4864 C   0  0  0  0  0  0  0  0  0  0  0  0
   -7.6455  -16.9479   11.8937 O   0  0  0  0  0  0  0  0  0  0  0  0
   -8.5446  -14.8271   11.5288 C   0  0  0  0  0  0  0  0  0  0  0  0
   -9.5202  -13.9983   11.2232 N   0  0  0  0  0  0  0  0  0  0  0  0
   -9.1697  -12.7710   11.3606 N   0  0  0  0  0  0  0  0  0  0  0  0
   -7.8716  -12.6705   11.7876 C   0  0  0  0  0  0  0  0  0  0  0  0
   -7.4024  -13.9918   11.9238 C   0  0  0  0  0  0  0  0  0  0  0  0
   -6.0978  -14.2293   12.3487 C   0  0  0  0  0  0  0  0  0  0  0  0
   -5.2792  -13.1709   12.6311 C   0  0  0  0  0  0  0  0  0  0  0  0
   -5.7397  -11.8666   12.4973 C   0  0  0  0  0  0  0  0  0  0  0  0
   -7.0181  -11.6130   12.0862 C   0  0  0  0  0  0  0  0  0  0  0  0
  -11.4177  -20.9881   14.1459 C   0  0  0  0  0  0  0  0  0  0  0  0
  -10.6937  -21.6822   15.1849 O   0  0  0  0  0  0  0  0  0  0  0  0
  -11.6030  -22.5093   15.8889 C   0  0  0  0  0  0  0  0  0  0  0  0
  -11.0499  -23.7684   16.5222 C   0  0  0  0  0  0  0  0  0  0  0  0
  -12.1254  -24.3549   17.2940 O   0  0  0  0  0  0  0  0  0  0  0  0
  -13.5887  -24.5688   16.6232 P   0  0  0  0  0  0  0  0  0  0  0  0
  -14.6313  -24.5586   17.6734 O   0  0  0  0  0  0  0  0  0  0  0  0
  -13.6287  -25.9648   15.8230 O   0  0  0  0  0  0  0  0  0  0  0  0
  -13.8239  -23.3261   15.5937 O   0  0  0  0  0  0  0  0  0  0  0  0
  -12.6756  -22.9027   14.8383 C   0  0  0  0  0  0  0  0  0  0  0  0
  -12.8690  -21.5379   14.1433 C   0  0  0  0  0  0  0  0  0  0  0  0
  -13.3730  -21.7080   12.7921 O   0  0  0  0  0  0  0  0  0  0  0  0
  -13.6070  -20.5931   12.0831 C   0  0  0  0  0  0  0  0  0  0  0  0
  -13.2009  -19.5277   12.4825 O   0  0  0  0  0  0  0  0  0  0  0  0
  -14.3754  -20.6689   10.7893 C   0  0  0  0  0  0  0  0  0  0  0  0
  -13.5336  -20.0723    9.6598 C   0  0  0  0  0  0  0  0  0  0  0  0
  -13.8960  -18.5976    9.4783 C   0  0  0  0  0  0  0  0  0  0  0  0
  1  2  1  0
  2  3  2  0
  2 10  1  0
  3  4  1  0
  3  7  1  0
  4  5  2  0
  5  6  1  0
  6  7  1  0
  6 23  1  0
  7  8  2  0
  8  9  1  0
  9 10  2  0
  9 11  1  0
 11 12  1  0
 12 13  2  0
 12 14  1  0
 14 15  2  0
 14 18  1  0
 15 16  1  0
 16 17  1  0
 17 18  2  0
 17 22  1  0
 18 19  1  0
 19 20  2  0
 20 21  1  0
 21 22  2  0
 23 24  1  0
 23 33  1  0
 24 25  1  0
 25 26  1  0
 25 32  1  0
 26 27  1  0
 27 28  1  0
 28 29  2  0
 28 30  1  0
 28 31  1  0
 31 32  1  0
 32 33  1  0
 33 34  1  0
 34 35  1  0
 35 36  2  0
 35 37  1  0
 37 38  1  0
 38 39  1  0
M  END
>  <Gold.Gold.Protein.RotatedWaterAtoms>  (426) 


>  <Gold.Id.Protein>  (426) 


>  <Gold.PLP.Chemscore.CHOScore>  (426) 
0.0000

>  <Gold.PLP.Chemscore.Hbond>  (426) 
1.6720

>  <Gold.PLP.Chemscore.Internal.Correction>  (426) 
0.6986

>  <Gold.PLP.Chemscore.Metal>  (426) 
0.0000

>  <Gold.PLP.Fitness>  (426) 
75.1008

>  <Gold.PLP.PLP>  (426) 
-71.7096

>  <Gold.PLP.ligand.clash>  (426) 
0.0000

>  <Gold.PLP.ligand.torsion>  (426) 
1.1617

>  <Gold.PLP.part.buried>  (426) 
-7.9416

>  <Gold.PLP.part.hbond>  (426) 
-3.8571

>  <Gold.PLP.part.metal>  (426) 
0.0000

>  <Gold.PLP.part.nonpolar>  (426) 
-61.9111

>  <Gold.PLP.part.repulsive>  (426) 
0.7334

>  <Gold.Protein.RotatedAtoms>  (426) 


>  <Gold.Protein.RotatedTorsions>  (426) 


>  <Gold.Protein.RotatedWaterAtoms>  (426) 


>  <Gold.Version>  (426) 
5.3.0

>  <PLP.Chemscore.CHOScore>  (426) 


>  <PLP.Chemscore.Hbond>  (426) 


>  <PLP.Chemscore.Internal.Correction>  (426) 


>  <PLP.Chemscore.Metal>  (426) 


>  <PLP.Fitness>  (426) 


>  <PLP.PLP>  (426) 


>  <PLP.ligand.clash>  (426) 


>  <PLP.ligand.torsion>  (426) 


>  <PLP.part.buried>  (426) 


>  <PLP.part.hbond>  (426) 


>  <PLP.part.metal>  (426) 


>  <PLP.part.nonpolar>  (426) 


>  <PLP.part.repulsive>  (426) 


>  <Version>  (426) 


$$$$
3426|Compound_2110|Compounds_3D_F|sdf|613|dock6|1
     RDKit          3D

 39 44  0  0  0  0  0  0  0  0999 V2000
  -13.3409  -18.2804    9.9107 O   0  0  0  0  0  0  0  0  0  0  0  0
  -12.1539  -18.7318   10.3830 C   0  0  0  0  0  0  0  0  0  0  0  0
  -11.9011  -20.1081   10.4849 C   0  0  0  0  0  0  0  0  0  0  0  0
  -12.6101  -21.2302   10.2042 N   0  0  0  0  0  0  0  0  0  0  0  0
  -11.8934  -22.2778   10.4902 C   0  0  0  0  0  0  0  0  0  0  0  0
  -10.6768  -21.8934   10.9729 N   0  0  0  0  0  0  0  0  0  0  0  0
  -10.6520  -20.5212   10.9816 C   0  0  0  0  0  0  0  0  0  0  0  0
   -9.7607  -19.6025   11.3345 N   0  0  0  0  0  0  0  0  0  0  0  0
  -10.0418  -18.3152   11.2212 C   0  0  0  0  0  0  0  0  0  0  0  0
  -11.2058  -17.8825   10.7544 N   0  0  0  0  0  0  0  0  0  0  0  0
   -9.0839  -17.3834   11.6024 N   0  0  0  0  0  0  0  0  0  0  0  0
   -7.7888  -17.5818   11.2886 C   0  0  0  0  0  0  0  0  0  0  0  0
   -7.4580  -18.5760   10.6716 O   0  0  0  0  0  0  0  0  0  0  0  0
   -6.7734  -16.5950   11.6944 C   0  0  0  0  0  0  0  0  0  0  0  0
   -5.4998  -16.8254   11.9331 N   0  0  0  0  0  0  0  0  0  0  0  0
   -4.8723  -15.7571   12.2693 N   0  0  0  0  0  0  0  0  0  0  0  0
   -5.7108  -14.6736   12.2859 C   0  0  0  0  0  0  0  0  0  0  0  0
   -6.9798  -15.1566   11.9104 C   0  0  0  0  0  0  0  0  0  0  0  0
   -8.0633  -14.2857   11.8316 C   0  0  0  0  0  0  0  0  0  0  0  0
   -7.8843  -12.9613   12.1218 C   0  0  0  0  0  0  0  0  0  0  0  0
   -6.6336  -12.4825   12.4927 C   0  0  0  0  0  0  0  0  0  0  0  0
   -5.5569  -13.3204   12.5712 C   0  0  0  0  0  0  0  0  0  0  0  0
   -9.5944  -22.7820   11.4039 C   0  0  0  0  0  0  0  0  0  0  0  0
   -9.7001  -24.0501   10.7213 O   0  0  0  0  0  0  0  0  0  0  0  0
   -9.7513  -25.0794   11.6932 C   0  0  0  0  0  0  0  0  0  0  0  0
  -10.4993  -26.3440   11.3275 C   0  0  0  0  0  0  0  0  0  0  0  0
  -10.2857  -27.2830   12.4086 O   0  0  0  0  0  0  0  0  0  0  0  0
  -10.5249  -26.8237   13.9477 P   0  0  0  0  0  0  0  0  0  0  0  0
   -9.6876  -27.6409   14.8539 O   0  0  0  0  0  0  0  0  0  0  0  0
  -12.0781  -26.9892   14.3365 O   0  0  0  0  0  0  0  0  0  0  0  0
  -10.0864  -25.2561   14.0476 O   0  0  0  0  0  0  0  0  0  0  0  0
  -10.4349  -24.4276   12.9248 C   0  0  0  0  0  0  0  0  0  0  0  0
   -9.7165  -23.0612   12.9257 C   0  0  0  0  0  0  0  0  0  0  0  0
  -10.5197  -22.0508   13.5910 O   0  0  0  0  0  0  0  0  0  0  0  0
  -10.7426  -22.2154   14.9040 C   0  0  0  0  0  0  0  0  0  0  0  0
  -10.2967  -23.1822   15.4751 O   0  0  0  0  0  0  0  0  0  0  0  0
  -11.5480  -21.1957   15.6664 C   0  0  0  0  0  0  0  0  0  0  0  0
  -12.9874  -21.1907   15.1484 C   0  0  0  0  0  0  0  0  0  0  0  0
  -13.0024  -20.7326   13.6893 C   0  0  0  0  0  0  0  0  0  0  0  0
  1  2  1  0
  2  3  2  0
  2 10  1  0
  3  4  1  0
  3  7  1  0
  4  5  2  0
  5  6  1  0
  6  7  1  0
  6 23  1  0
  7  8  2  0
  8  9  1  0
  9 10  2  0
  9 11  1  0
 11 12  1  0
 12 13  2  0
 12 14  1  0
 14 15  2  0
 14 18  1  0
 15 16  1  0
 16 17  1  0
 17 18  2  0
 17 22  1  0
 18 19  1  0
 19 20  2  0
 20 21  1  0
 21 22  2  0
 23 24  1  0
 23 33  1  0
 24 25  1  0
 25 26  1  0
 25 32  1  0
 26 27  1  0
 27 28  1  0
 28 29  2  0
 28 30  1  0
 28 31  1  0
 31 32  1  0
 32 33  1  0
 33 34  1  0
 34 35  1  0
 35 36  2  0
 35 37  1  0
 37 38  1  0
 38 39  1  0
M  END
>  <Gold.Gold.Protein.RotatedWaterAtoms>  (427) 


>  <Gold.Id.Protein>  (427) 


>  <Gold.PLP.Chemscore.CHOScore>  (427) 
0.0000

>  <Gold.PLP.Chemscore.Hbond>  (427) 
2.0000

>  <Gold.PLP.Chemscore.Internal.Correction>  (427) 
0.6986

>  <Gold.PLP.Chemscore.Metal>  (427) 
0.0000

>  <Gold.PLP.Fitness>  (427) 
65.5039

>  <Gold.PLP.PLP>  (427) 
-61.6538

>  <Gold.PLP.ligand.clash>  (427) 
0.0000

>  <Gold.PLP.ligand.torsion>  (427) 
1.4243

>  <Gold.PLP.part.buried>  (427) 
-13.0843

>  <Gold.PLP.part.hbond>  (427) 
-2.0000

>  <Gold.PLP.part.metal>  (427) 
0.0000

>  <Gold.PLP.part.nonpolar>  (427) 
-46.9255

>  <Gold.PLP.part.repulsive>  (427) 
0.1914

>  <Gold.Protein.RotatedAtoms>  (427) 


>  <Gold.Protein.RotatedTorsions>  (427) 


>  <Gold.Protein.RotatedWaterAtoms>  (427) 


>  <Gold.Version>  (427) 
5.3.0

>  <PLP.Chemscore.CHOScore>  (427) 


>  <PLP.Chemscore.Hbond>  (427) 


>  <PLP.Chemscore.Internal.Correction>  (427) 


>  <PLP.Chemscore.Metal>  (427) 


>  <PLP.Fitness>  (427) 


>  <PLP.PLP>  (427) 


>  <PLP.ligand.clash>  (427) 


>  <PLP.ligand.torsion>  (427) 


>  <PLP.part.buried>  (427) 


>  <PLP.part.hbond>  (427) 


>  <PLP.part.metal>  (427) 


>  <PLP.part.nonpolar>  (427) 


>  <PLP.part.repulsive>  (427) 


>  <Version>  (427) 


$$$$
3427|Compound_2110|Compounds_3D_F|sdf|613|dock7|1
     RDKit          3D

 39 44  0  0  0  0  0  0  0  0999 V2000
   -8.5140  -19.9369    7.1874 O   0  0  0  0  0  0  0  0  0  0  0  0
   -8.6276  -19.6141    8.4984 C   0  0  0  0  0  0  0  0  0  0  0  0
   -9.2500  -20.4907    9.3998 C   0  0  0  0  0  0  0  0  0  0  0  0
   -9.8324  -21.7115    9.2932 N   0  0  0  0  0  0  0  0  0  0  0  0
  -10.2631  -22.0890   10.4615 C   0  0  0  0  0  0  0  0  0  0  0  0
   -9.9834  -21.1328   11.3934 N   0  0  0  0  0  0  0  0  0  0  0  0
   -9.3404  -20.1055   10.7493 C   0  0  0  0  0  0  0  0  0  0  0  0
   -8.8377  -18.9346   11.1223 N   0  0  0  0  0  0  0  0  0  0  0  0
   -8.2591  -18.1394   10.2381 C   0  0  0  0  0  0  0  0  0  0  0  0
   -8.1494  -18.4655    8.9568 N   0  0  0  0  0  0  0  0  0  0  0  0
   -7.7463  -16.9209   10.6663 N   0  0  0  0  0  0  0  0  0  0  0  0
   -6.5447  -16.8718   11.2737 C   0  0  0  0  0  0  0  0  0  0  0  0
   -5.9087  -17.8936   11.4470 O   0  0  0  0  0  0  0  0  0  0  0  0
   -6.0021  -15.5804   11.7292 C   0  0  0  0  0  0  0  0  0  0  0  0
   -4.7815  -15.3453   12.1615 N   0  0  0  0  0  0  0  0  0  0  0  0
   -4.6152  -14.1148   12.4875 N   0  0  0  0  0  0  0  0  0  0  0  0
   -5.7620  -13.3907   12.2933 C   0  0  0  0  0  0  0  0  0  0  0  0
   -6.7150  -14.2972   11.7886 C   0  0  0  0  0  0  0  0  0  0  0  0
   -8.0018  -13.8607   11.4849 C   0  0  0  0  0  0  0  0  0  0  0  0
   -8.3305  -12.5478   11.6809 C   0  0  0  0  0  0  0  0  0  0  0  0
   -7.3924  -11.6517   12.1788 C   0  0  0  0  0  0  0  0  0  0  0  0
   -6.1230  -12.0597   12.4785 C   0  0  0  0  0  0  0  0  0  0  0  0
  -10.3098  -21.1909   12.8206 C   0  0  0  0  0  0  0  0  0  0  0  0
   -9.5198  -22.2149   13.4629 O   0  0  0  0  0  0  0  0  0  0  0  0
  -10.3974  -23.1110   14.1213 C   0  0  0  0  0  0  0  0  0  0  0  0
   -9.9375  -24.5450   14.2777 C   0  0  0  0  0  0  0  0  0  0  0  0
  -10.9261  -25.2135   15.0976 O   0  0  0  0  0  0  0  0  0  0  0  0
  -12.5048  -25.0861   14.7391 P   0  0  0  0  0  0  0  0  0  0  0  0
  -13.3161  -25.2655   15.9638 O   0  0  0  0  0  0  0  0  0  0  0  0
  -12.9116  -26.1931   13.6437 O   0  0  0  0  0  0  0  0  0  0  0  0
  -12.7336  -23.5890   14.1344 O   0  0  0  0  0  0  0  0  0  0  0  0
  -11.6968  -23.0880   13.2727 C   0  0  0  0  0  0  0  0  0  0  0  0
  -11.8031  -21.5715   13.0044 C   0  0  0  0  0  0  0  0  0  0  0  0
  -12.5731  -21.3079   11.8018 O   0  0  0  0  0  0  0  0  0  0  0  0
  -13.8768  -21.6240   11.8303 C   0  0  0  0  0  0  0  0  0  0  0  0
  -14.3577  -22.1120   12.8254 O   0  0  0  0  0  0  0  0  0  0  0  0
  -14.7415  -21.3706   10.6228 C   0  0  0  0  0  0  0  0  0  0  0  0
  -13.9686  -20.5237    9.6099 C   0  0  0  0  0  0  0  0  0  0  0  0
  -13.7770  -19.1122   10.1666 C   0  0  0  0  0  0  0  0  0  0  0  0
  1  2  1  0
  2  3  2  0
  2 10  1  0
  3  4  1  0
  3  7  1  0
  4  5  2  0
  5  6  1  0
  6  7  1  0
  6 23  1  0
  7  8  2  0
  8  9  1  0
  9 10  2  0
  9 11  1  0
 11 12  1  0
 12 13  2  0
 12 14  1  0
 14 15  2  0
 14 18  1  0
 15 16  1  0
 16 17  1  0
 17 18  2  0
 17 22  1  0
 18 19  1  0
 19 20  2  0
 20 21  1  0
 21 22  2  0
 23 24  1  0
 23 33  1  0
 24 25  1  0
 25 26  1  0
 25 32  1  0
 26 27  1  0
 27 28  1  0
 28 29  2  0
 28 30  1  0
 28 31  1  0
 31 32  1  0
 32 33  1  0
 33 34  1  0
 34 35  1  0
 35 36  2  0
 35 37  1  0
 37 38  1  0
 38 39  1  0
M  END
>  <Gold.Gold.Protein.RotatedWaterAtoms>  (428) 


>  <Gold.Id.Protein>  (428) 


>  <Gold.PLP.Chemscore.CHOScore>  (428) 
0.0000

>  <Gold.PLP.Chemscore.Hbond>  (428) 
2.9930

>  <Gold.PLP.Chemscore.Internal.Correction>  (428) 
0.6986

>  <Gold.PLP.Chemscore.Metal>  (428) 
0.0000

>  <Gold.PLP.Fitness>  (428) 
66.9139

>  <Gold.PLP.PLP>  (428) 
-59.3729

>  <Gold.PLP.ligand.clash>  (428) 
0.0000

>  <Gold.PLP.ligand.torsion>  (428) 
1.0683

>  <Gold.PLP.part.buried>  (428) 
-7.3087

>  <Gold.PLP.part.hbond>  (428) 
-6.8450

>  <Gold.PLP.part.metal>  (428) 
0.0000

>  <Gold.PLP.part.nonpolar>  (428) 
-46.9416

>  <Gold.PLP.part.repulsive>  (428) 
0.4863

>  <Gold.Protein.RotatedAtoms>  (428) 


>  <Gold.Protein.RotatedTorsions>  (428) 


>  <Gold.Protein.RotatedWaterAtoms>  (428) 


>  <Gold.Version>  (428) 
5.3.0

>  <PLP.Chemscore.CHOScore>  (428) 


>  <PLP.Chemscore.Hbond>  (428) 


>  <PLP.Chemscore.Internal.Correction>  (428) 


>  <PLP.Chemscore.Metal>  (428) 


>  <PLP.Fitness>  (428) 


>  <PLP.PLP>  (428) 


>  <PLP.ligand.clash>  (428) 


>  <PLP.ligand.torsion>  (428) 


>  <PLP.part.buried>  (428) 


>  <PLP.part.hbond>  (428) 


>  <PLP.part.metal>  (428) 


>  <PLP.part.nonpolar>  (428) 


>  <PLP.part.repulsive>  (428) 


>  <Version>  (428) 


$$$$
3428|Compound_2110|Compounds_3D_F|sdf|613|dock8|1
     RDKit          3D

 39 44  0  0  0  0  0  0  0  0999 V2000
   -8.6591  -20.7718    9.3357 O   0  0  0  0  0  0  0  0  0  0  0  0
   -9.3332  -20.1442   10.3294 C   0  0  0  0  0  0  0  0  0  0  0  0
  -10.0564  -20.8807   11.2796 C   0  0  0  0  0  0  0  0  0  0  0  0
  -10.2838  -22.2018   11.4891 N   0  0  0  0  0  0  0  0  0  0  0  0
  -11.0418  -22.3497   12.5362 C   0  0  0  0  0  0  0  0  0  0  0  0
  -11.3488  -21.1307   13.0661 N   0  0  0  0  0  0  0  0  0  0  0  0
  -10.7375  -20.1783   12.2897 C   0  0  0  0  0  0  0  0  0  0  0  0
  -10.6739  -18.8522   12.3104 N   0  0  0  0  0  0  0  0  0  0  0  0
   -9.9796  -18.1984   11.3941 C   0  0  0  0  0  0  0  0  0  0  0  0
   -9.3197  -18.8219   10.4266 N   0  0  0  0  0  0  0  0  0  0  0  0
   -9.9381  -16.8105   11.4478 N   0  0  0  0  0  0  0  0  0  0  0  0
   -8.7519  -16.1735   11.4969 C   0  0  0  0  0  0  0  0  0  0  0  0
   -7.7177  -16.8129   11.4940 O   0  0  0  0  0  0  0  0  0  0  0  0
   -8.7080  -14.7024   11.5557 C   0  0  0  0  0  0  0  0  0  0  0  0
   -9.6954  -13.8721   11.2953 N   0  0  0  0  0  0  0  0  0  0  0  0
   -9.3424  -12.6458   11.4351 N   0  0  0  0  0  0  0  0  0  0  0  0
   -8.0301  -12.5476   11.8165 C   0  0  0  0  0  0  0  0  0  0  0  0
   -7.5540  -13.8694   11.9197 C   0  0  0  0  0  0  0  0  0  0  0  0
   -6.2346  -14.1092   12.2947 C   0  0  0  0  0  0  0  0  0  0  0  0
   -5.4083  -13.0525   12.5607 C   0  0  0  0  0  0  0  0  0  0  0  0
   -5.8756  -11.7477   12.4593 C   0  0  0  0  0  0  0  0  0  0  0  0
   -7.1683  -11.4919   12.0974 C   0  0  0  0  0  0  0  0  0  0  0  0
  -12.1794  -20.8827   14.2475 C   0  0  0  0  0  0  0  0  0  0  0  0
  -11.4573  -21.2550   15.4413 O   0  0  0  0  0  0  0  0  0  0  0  0
  -12.2410  -22.1852   16.1674 C   0  0  0  0  0  0  0  0  0  0  0  0
  -11.5061  -23.1912   17.0277 C   0  0  0  0  0  0  0  0  0  0  0  0
  -12.5129  -23.9209   17.7695 O   0  0  0  0  0  0  0  0  0  0  0  0
  -13.7936  -24.5561   16.9992 P   0  0  0  0  0  0  0  0  0  0  0  0
  -14.9374  -24.6697   17.9315 O   0  0  0  0  0  0  0  0  0  0  0  0
  -13.4183  -26.0066   16.4109 O   0  0  0  0  0  0  0  0  0  0  0  0
  -14.1671  -23.5373   15.7819 O   0  0  0  0  0  0  0  0  0  0  0  0
  -13.0557  -22.9454   15.0870 C   0  0  0  0  0  0  0  0  0  0  0  0
  -13.4588  -21.7591   14.1852 C   0  0  0  0  0  0  0  0  0  0  0  0
  -13.7354  -22.2044   12.8311 O   0  0  0  0  0  0  0  0  0  0  0  0
  -13.9097  -21.2543   11.8997 C   0  0  0  0  0  0  0  0  0  0  0  0
  -13.8457  -20.0880   12.2083 O   0  0  0  0  0  0  0  0  0  0  0  0
  -14.1848  -21.6407   10.4697 C   0  0  0  0  0  0  0  0  0  0  0  0
  -13.5582  -20.6071    9.5319 C   0  0  0  0  0  0  0  0  0  0  0  0
  -14.4670  -19.3802    9.4455 C   0  0  0  0  0  0  0  0  0  0  0  0
  1  2  1  0
  2  3  2  0
  2 10  1  0
  3  4  1  0
  3  7  1  0
  4  5  2  0
  5  6  1  0
  6  7  1  0
  6 23  1  0
  7  8  2  0
  8  9  1  0
  9 10  2  0
  9 11  1  0
 11 12  1  0
 12 13  2  0
 12 14  1  0
 14 15  2  0
 14 18  1  0
 15 16  1  0
 16 17  1  0
 17 18  2  0
 17 22  1  0
 18 19  1  0
 19 20  2  0
 20 21  1  0
 21 22  2  0
 23 24  1  0
 23 33  1  0
 24 25  1  0
 25 26  1  0
 25 32  1  0
 26 27  1  0
 27 28  1  0
 28 29  2  0
 28 30  1  0
 28 31  1  0
 31 32  1  0
 32 33  1  0
 33 34  1  0
 34 35  1  0
 35 36  2  0
 35 37  1  0
 37 38  1  0
 38 39  1  0
M  END
>  <Gold.Gold.Protein.RotatedWaterAtoms>  (429) 


>  <Gold.Id.Protein>  (429) 


>  <Gold.PLP.Chemscore.CHOScore>  (429) 
0.0000

>  <Gold.PLP.Chemscore.Hbond>  (429) 
2.2656

>  <Gold.PLP.Chemscore.Internal.Correction>  (429) 
0.6986

>  <Gold.PLP.Chemscore.Metal>  (429) 
0.0000

>  <Gold.PLP.Fitness>  (429) 
73.8870

>  <Gold.PLP.PLP>  (429) 
-70.5682

>  <Gold.PLP.ligand.clash>  (429) 
1.3175

>  <Gold.PLP.ligand.torsion>  (429) 
1.4296

>  <Gold.PLP.part.buried>  (429) 
-10.0808

>  <Gold.PLP.part.hbond>  (429) 
-3.8442

>  <Gold.PLP.part.metal>  (429) 
0.0000

>  <Gold.PLP.part.nonpolar>  (429) 
-59.9477

>  <Gold.PLP.part.repulsive>  (429) 
2.9590

>  <Gold.Protein.RotatedAtoms>  (429) 


>  <Gold.Protein.RotatedTorsions>  (429) 


>  <Gold.Protein.RotatedWaterAtoms>  (429) 


>  <Gold.Version>  (429) 
5.3.0

>  <PLP.Chemscore.CHOScore>  (429) 


>  <PLP.Chemscore.Hbond>  (429) 


>  <PLP.Chemscore.Internal.Correction>  (429) 


>  <PLP.Chemscore.Metal>  (429) 


>  <PLP.Fitness>  (429) 


>  <PLP.PLP>  (429) 


>  <PLP.ligand.clash>  (429) 


>  <PLP.ligand.torsion>  (429) 


>  <PLP.part.buried>  (429) 


>  <PLP.part.hbond>  (429) 


>  <PLP.part.metal>  (429) 


>  <PLP.part.nonpolar>  (429) 


>  <PLP.part.repulsive>  (429) 


>  <Version>  (429) 


$$$$
3429|Compound_2114|Compounds_3D_F|sdf|614|dock1|1
     RDKit          3D

 18 19  0  0  0  0  0  0  0  0999 V2000
   -7.6122  -16.2903   11.5378 N   0  0  0  0  0  0  0  0  0  0  0  0
   -7.9314  -15.0154   11.8379 C   0  0  0  0  0  0  0  0  0  0  0  0
   -9.0978  -14.6829   11.9122 O   0  0  0  0  0  0  0  0  0  0  0  0
   -6.8622  -14.0228   12.0766 C   0  0  0  0  0  0  0  0  0  0  0  0
   -5.5696  -14.2622   12.0721 N   0  0  0  0  0  0  0  0  0  0  0  0
   -4.9447  -13.1620   12.3173 N   0  0  0  0  0  0  0  0  0  0  0  0
   -5.8526  -12.1838   12.4859 C   0  0  0  0  0  0  0  0  0  0  0  0
   -7.0394  -12.7136   12.3320 N   0  0  0  0  0  0  0  0  0  0  0  0
   -8.6136  -17.2196   11.3092 C   0  0  0  0  0  0  0  0  0  0  0  0
   -9.8620  -17.0938   11.6737 N   0  0  0  0  0  0  0  0  0  0  0  0
  -10.5396  -18.2064   11.2752 C   0  0  0  0  0  0  0  0  0  0  0  0
   -9.6454  -19.0199   10.6501 C   0  0  0  0  0  0  0  0  0  0  0  0
   -8.4566  -18.3923   10.6740 O   0  0  0  0  0  0  0  0  0  0  0  0
  -11.9720  -18.4788   11.4835 C   0  0  0  0  0  0  0  0  0  0  0  0
  -12.5174  -18.1128   12.5060 O   0  0  0  0  0  0  0  0  0  0  0  0
  -12.6770  -19.1348   10.5410 O   0  0  0  0  0  0  0  0  0  0  0  0
  -14.1140  -19.2195   10.7321 C   0  0  0  0  0  0  0  0  0  0  0  0
  -14.7110  -20.1763    9.6989 C   0  0  0  0  0  0  0  0  0  0  0  0
  1  2  1  0
  1  9  1  0
  2  3  2  0
  2  4  1  0
  4  5  2  0
  4  8  1  0
  5  6  1  0
  6  7  1  0
  7  8  2  0
  9 10  2  0
  9 13  1  0
 10 11  1  0
 11 12  2  0
 11 14  1  0
 12 13  1  0
 14 15  2  0
 14 16  1  0
 16 17  1  0
 17 18  1  0
M  END
>  <Gold.Gold.Protein.RotatedWaterAtoms>  (430) 


>  <Gold.Id.Protein>  (430) 


>  <Gold.PLP.Chemscore.CHOScore>  (430) 
0.0000

>  <Gold.PLP.Chemscore.Hbond>  (430) 
2.6882

>  <Gold.PLP.Chemscore.Internal.Correction>  (430) 
0.0823

>  <Gold.PLP.Chemscore.Metal>  (430) 
0.0000

>  <Gold.PLP.Fitness>  (430) 
44.7317

>  <Gold.PLP.PLP>  (430) 
-37.9263

>  <Gold.PLP.ligand.clash>  (430) 
0.0000

>  <Gold.PLP.ligand.torsion>  (430) 
0.6707

>  <Gold.PLP.part.buried>  (430) 
-10.0284

>  <Gold.PLP.part.hbond>  (430) 
-4.4399

>  <Gold.PLP.part.metal>  (430) 
0.0000

>  <Gold.PLP.part.nonpolar>  (430) 
-24.0171

>  <Gold.PLP.part.repulsive>  (430) 
0.7468

>  <Gold.Protein.RotatedAtoms>  (430) 


>  <Gold.Protein.RotatedTorsions>  (430) 


>  <Gold.Protein.RotatedWaterAtoms>  (430) 


>  <Gold.Version>  (430) 
5.3.0

>  <PLP.Chemscore.CHOScore>  (430) 


>  <PLP.Chemscore.Hbond>  (430) 


>  <PLP.Chemscore.Internal.Correction>  (430) 


>  <PLP.Chemscore.Metal>  (430) 


>  <PLP.Fitness>  (430) 


>  <PLP.PLP>  (430) 


>  <PLP.ligand.clash>  (430) 


>  <PLP.ligand.torsion>  (430) 


>  <PLP.part.buried>  (430) 


>  <PLP.part.hbond>  (430) 


>  <PLP.part.metal>  (430) 


>  <PLP.part.nonpolar>  (430) 


>  <PLP.part.repulsive>  (430) 


>  <Version>  (430) 


$$$$
3430|Compound_2114|Compounds_3D_F|sdf|614|dock2|1
     RDKit          3D

 18 19  0  0  0  0  0  0  0  0999 V2000
   -7.6314  -16.5310   11.5771 N   0  0  0  0  0  0  0  0  0  0  0  0
   -7.9454  -15.2496   11.8535 C   0  0  0  0  0  0  0  0  0  0  0  0
   -9.1092  -14.9219   11.9741 O   0  0  0  0  0  0  0  0  0  0  0  0
   -6.8733  -14.2436   12.0099 C   0  0  0  0  0  0  0  0  0  0  0  0
   -5.5825  -14.4893   12.0523 N   0  0  0  0  0  0  0  0  0  0  0  0
   -4.9540  -13.3733   12.1966 N   0  0  0  0  0  0  0  0  0  0  0  0
   -5.8577  -12.3782   12.2498 C   0  0  0  0  0  0  0  0  0  0  0  0
   -7.0455  -12.9145   12.1290 N   0  0  0  0  0  0  0  0  0  0  0  0
   -8.6357  -17.4730   11.4256 C   0  0  0  0  0  0  0  0  0  0  0  0
   -9.9093  -17.2624   11.6283 N   0  0  0  0  0  0  0  0  0  0  0  0
  -10.5808  -18.4212   11.3791 C   0  0  0  0  0  0  0  0  0  0  0  0
   -9.6567  -19.3515   11.0150 C   0  0  0  0  0  0  0  0  0  0  0  0
   -8.4558  -18.7476   11.0432 O   0  0  0  0  0  0  0  0  0  0  0  0
  -12.0351  -18.6287   11.4853 C   0  0  0  0  0  0  0  0  0  0  0  0
  -12.6520  -18.1416   12.4122 O   0  0  0  0  0  0  0  0  0  0  0  0
  -12.6809  -19.3597   10.5557 O   0  0  0  0  0  0  0  0  0  0  0  0
  -14.0667  -19.0151   10.2918 C   0  0  0  0  0  0  0  0  0  0  0  0
  -14.6221  -19.9324    9.2011 C   0  0  0  0  0  0  0  0  0  0  0  0
  1  2  1  0
  1  9  1  0
  2  3  2  0
  2  4  1  0
  4  5  2  0
  4  8  1  0
  5  6  1  0
  6  7  1  0
  7  8  2  0
  9 10  2  0
  9 13  1  0
 10 11  1  0
 11 12  2  0
 11 14  1  0
 12 13  1  0
 14 15  2  0
 14 16  1  0
 16 17  1  0
 17 18  1  0
M  END
>  <Gold.Gold.Protein.RotatedWaterAtoms>  (431) 


>  <Gold.Id.Protein>  (431) 


>  <Gold.PLP.Chemscore.CHOScore>  (431) 
0.0000

>  <Gold.PLP.Chemscore.Hbond>  (431) 
2.5449

>  <Gold.PLP.Chemscore.Internal.Correction>  (431) 
0.0544

>  <Gold.PLP.Chemscore.Metal>  (431) 
0.0000

>  <Gold.PLP.Fitness>  (431) 
44.2512

>  <Gold.PLP.PLP>  (431) 
-38.7778

>  <Gold.PLP.ligand.clash>  (431) 
0.0984

>  <Gold.PLP.ligand.torsion>  (431) 
1.0587

>  <Gold.PLP.part.buried>  (431) 
-10.6626

>  <Gold.PLP.part.hbond>  (431) 
-4.6841

>  <Gold.PLP.part.metal>  (431) 
0.0000

>  <Gold.PLP.part.nonpolar>  (431) 
-24.1577

>  <Gold.PLP.part.repulsive>  (431) 
0.7387

>  <Gold.Protein.RotatedAtoms>  (431) 


>  <Gold.Protein.RotatedTorsions>  (431) 


>  <Gold.Protein.RotatedWaterAtoms>  (431) 


>  <Gold.Version>  (431) 
5.3.0

>  <PLP.Chemscore.CHOScore>  (431) 


>  <PLP.Chemscore.Hbond>  (431) 


>  <PLP.Chemscore.Internal.Correction>  (431) 


>  <PLP.Chemscore.Metal>  (431) 


>  <PLP.Fitness>  (431) 


>  <PLP.PLP>  (431) 


>  <PLP.ligand.clash>  (431) 


>  <PLP.ligand.torsion>  (431) 


>  <PLP.part.buried>  (431) 


>  <PLP.part.hbond>  (431) 


>  <PLP.part.metal>  (431) 


>  <PLP.part.nonpolar>  (431) 


>  <PLP.part.repulsive>  (431) 


>  <Version>  (431) 


$$$$
3431|Compound_2114|Compounds_3D_F|sdf|614|dock3|1
     RDKit          3D

 18 19  0  0  0  0  0  0  0  0999 V2000
   -7.6889  -16.4566   11.6535 N   0  0  0  0  0  0  0  0  0  0  0  0
   -7.9155  -15.1279   11.6381 C   0  0  0  0  0  0  0  0  0  0  0  0
   -9.0190  -14.7032   11.3579 O   0  0  0  0  0  0  0  0  0  0  0  0
   -6.8213  -14.1881   11.9624 C   0  0  0  0  0  0  0  0  0  0  0  0
   -5.5377  -14.4715   11.9782 N   0  0  0  0  0  0  0  0  0  0  0  0
   -4.8840  -13.4095   12.3036 N   0  0  0  0  0  0  0  0  0  0  0  0
   -5.7635  -12.4117   12.5048 C   0  0  0  0  0  0  0  0  0  0  0  0
   -6.9623  -12.8904   12.2889 N   0  0  0  0  0  0  0  0  0  0  0  0
   -8.7125  -17.3374   11.3449 C   0  0  0  0  0  0  0  0  0  0  0  0
   -9.9342  -17.2704   11.8035 N   0  0  0  0  0  0  0  0  0  0  0  0
  -10.6472  -18.3053   11.2779 C   0  0  0  0  0  0  0  0  0  0  0  0
   -9.8028  -19.0097   10.4761 C   0  0  0  0  0  0  0  0  0  0  0  0
   -8.6082  -18.3945   10.5234 O   0  0  0  0  0  0  0  0  0  0  0  0
  -12.0666  -18.6065   11.5312 C   0  0  0  0  0  0  0  0  0  0  0  0
  -12.6196  -18.1467   12.5108 O   0  0  0  0  0  0  0  0  0  0  0  0
  -12.7511  -19.3929   10.6777 O   0  0  0  0  0  0  0  0  0  0  0  0
  -14.2004  -19.3383   10.7487 C   0  0  0  0  0  0  0  0  0  0  0  0
  -14.7982  -20.0328    9.5241 C   0  0  0  0  0  0  0  0  0  0  0  0
  1  2  1  0
  1  9  1  0
  2  3  2  0
  2  4  1  0
  4  5  2  0
  4  8  1  0
  5  6  1  0
  6  7  1  0
  7  8  2  0
  9 10  2  0
  9 13  1  0
 10 11  1  0
 11 12  2  0
 11 14  1  0
 12 13  1  0
 14 15  2  0
 14 16  1  0
 16 17  1  0
 17 18  1  0
M  END
>  <Gold.Gold.Protein.RotatedWaterAtoms>  (432) 


>  <Gold.Id.Protein>  (432) 


>  <Gold.PLP.Chemscore.CHOScore>  (432) 
0.0000

>  <Gold.PLP.Chemscore.Hbond>  (432) 
2.4648

>  <Gold.PLP.Chemscore.Internal.Correction>  (432) 
0.0544

>  <Gold.PLP.Chemscore.Metal>  (432) 
0.0000

>  <Gold.PLP.Fitness>  (432) 
43.1790

>  <Gold.PLP.PLP>  (432) 
-37.6338

>  <Gold.PLP.ligand.clash>  (432) 
0.0000

>  <Gold.PLP.ligand.torsion>  (432) 
0.9519

>  <Gold.PLP.part.buried>  (432) 
-10.3729

>  <Gold.PLP.part.hbond>  (432) 
-4.7598

>  <Gold.PLP.part.metal>  (432) 
0.0000

>  <Gold.PLP.part.nonpolar>  (432) 
-23.7298

>  <Gold.PLP.part.repulsive>  (432) 
0.7732

>  <Gold.Protein.RotatedAtoms>  (432) 


>  <Gold.Protein.RotatedTorsions>  (432) 


>  <Gold.Protein.RotatedWaterAtoms>  (432) 


>  <Gold.Version>  (432) 
5.3.0

>  <PLP.Chemscore.CHOScore>  (432) 


>  <PLP.Chemscore.Hbond>  (432) 


>  <PLP.Chemscore.Internal.Correction>  (432) 


>  <PLP.Chemscore.Metal>  (432) 


>  <PLP.Fitness>  (432) 


>  <PLP.PLP>  (432) 


>  <PLP.ligand.clash>  (432) 


>  <PLP.ligand.torsion>  (432) 


>  <PLP.part.buried>  (432) 


>  <PLP.part.hbond>  (432) 


>  <PLP.part.metal>  (432) 


>  <PLP.part.nonpolar>  (432) 


>  <PLP.part.repulsive>  (432) 


>  <Version>  (432) 


$$$$
3432|Compound_2115|Compounds_3D_F|sdf|615|dock1|1
     RDKit          3D

 17 18  0  0  0  0  0  0  0  0999 V2000
   -8.1516  -15.2891   12.0611 N   0  0  0  0  0  0  0  0  0  0  0  0
   -8.5193  -13.9947   12.1405 C   0  0  0  0  0  0  0  0  0  0  0  0
   -9.6972  -13.6999   12.1879 O   0  0  0  0  0  0  0  0  0  0  0  0
   -7.4893  -12.9346   12.1699 C   0  0  0  0  0  0  0  0  0  0  0  0
   -7.6271  -11.7084   11.7139 N   0  0  0  0  0  0  0  0  0  0  0  0
   -6.5257  -11.0693   11.9090 N   0  0  0  0  0  0  0  0  0  0  0  0
   -5.6501  -11.8985   12.5053 C   0  0  0  0  0  0  0  0  0  0  0  0
   -6.2466  -13.0514   12.6724 N   0  0  0  0  0  0  0  0  0  0  0  0
   -9.1223  -16.2892   12.0282 C   0  0  0  0  0  0  0  0  0  0  0  0
  -10.3485  -16.2082   12.4728 N   0  0  0  0  0  0  0  0  0  0  0  0
  -10.9501  -17.2432   12.3024 O   0  0  0  0  0  0  0  0  0  0  0  0
  -10.1859  -18.1712   11.7095 C   0  0  0  0  0  0  0  0  0  0  0  0
   -8.9774  -17.5999   11.4995 C   0  0  0  0  0  0  0  0  0  0  0  0
  -10.5942  -19.5740   11.3407 C   0  0  0  0  0  0  0  0  0  0  0  0
   -9.3897  -20.3202   10.7618 C   0  0  0  0  0  0  0  0  0  0  0  0
  -11.0934  -20.3041   12.5903 C   0  0  0  0  0  0  0  0  0  0  0  0
  -11.7126  -19.5237   10.2982 C   0  0  0  0  0  0  0  0  0  0  0  0
  1  2  1  0
  1  9  1  0
  2  3  2  0
  2  4  1  0
  4  5  2  0
  4  8  1  0
  5  6  1  0
  6  7  1  0
  7  8  2  0
  9 10  2  0
  9 13  1  0
 10 11  1  0
 11 12  1  0
 12 13  2  0
 12 14  1  0
 14 15  1  0
 14 16  1  0
 14 17  1  0
M  END
>  <Gold.Gold.Protein.RotatedWaterAtoms>  (433) 


>  <Gold.Id.Protein>  (433) 


>  <Gold.PLP.Chemscore.CHOScore>  (433) 
0.9065

>  <Gold.PLP.Chemscore.Hbond>  (433) 
1.9750

>  <Gold.PLP.Chemscore.Internal.Correction>  (433) 
0.0059

>  <Gold.PLP.Chemscore.Metal>  (433) 
0.0000

>  <Gold.PLP.Fitness>  (433) 
45.4655

>  <Gold.PLP.PLP>  (433) 
-37.8675

>  <Gold.PLP.ligand.clash>  (433) 
0.0000

>  <Gold.PLP.ligand.torsion>  (433) 
0.5262

>  <Gold.PLP.part.buried>  (433) 
-8.3566

>  <Gold.PLP.part.hbond>  (433) 
-4.0321

>  <Gold.PLP.part.metal>  (433) 
0.0000

>  <Gold.PLP.part.nonpolar>  (433) 
-26.6859

>  <Gold.PLP.part.repulsive>  (433) 
0.8793

>  <Gold.Protein.RotatedAtoms>  (433) 


>  <Gold.Protein.RotatedTorsions>  (433) 


>  <Gold.Protein.RotatedWaterAtoms>  (433) 


>  <Gold.Version>  (433) 
5.3.0

>  <PLP.Chemscore.CHOScore>  (433) 


>  <PLP.Chemscore.Hbond>  (433) 


>  <PLP.Chemscore.Internal.Correction>  (433) 


>  <PLP.Chemscore.Metal>  (433) 


>  <PLP.Fitness>  (433) 


>  <PLP.PLP>  (433) 


>  <PLP.ligand.clash>  (433) 


>  <PLP.ligand.torsion>  (433) 


>  <PLP.part.buried>  (433) 


>  <PLP.part.hbond>  (433) 


>  <PLP.part.metal>  (433) 


>  <PLP.part.nonpolar>  (433) 


>  <PLP.part.repulsive>  (433) 


>  <Version>  (433) 


$$$$
3433|Compound_2115|Compounds_3D_F|sdf|615|dock2|1
     RDKit          3D

 17 18  0  0  0  0  0  0  0  0999 V2000
   -8.1565  -15.8390   12.0529 N   0  0  0  0  0  0  0  0  0  0  0  0
   -8.2441  -14.4969   12.1426 C   0  0  0  0  0  0  0  0  0  0  0  0
   -9.3336  -13.9618   12.1988 O   0  0  0  0  0  0  0  0  0  0  0  0
   -7.0144  -13.6768   12.1727 C   0  0  0  0  0  0  0  0  0  0  0  0
   -5.7802  -14.1321   12.1839 N   0  0  0  0  0  0  0  0  0  0  0  0
   -4.9709  -13.1302   12.2105 N   0  0  0  0  0  0  0  0  0  0  0  0
   -5.6945  -11.9961   12.2174 C   0  0  0  0  0  0  0  0  0  0  0  0
   -6.9590  -12.3324   12.1886 N   0  0  0  0  0  0  0  0  0  0  0  0
   -9.3157  -16.6129   12.0194 C   0  0  0  0  0  0  0  0  0  0  0  0
  -10.4845  -16.2980   12.5120 N   0  0  0  0  0  0  0  0  0  0  0  0
  -11.2941  -17.1767   12.3262 O   0  0  0  0  0  0  0  0  0  0  0  0
  -10.7585  -18.2166   11.6716 C   0  0  0  0  0  0  0  0  0  0  0  0
   -9.4637  -17.9006   11.4378 C   0  0  0  0  0  0  0  0  0  0  0  0
  -11.4619  -19.4863   11.2668 C   0  0  0  0  0  0  0  0  0  0  0  0
  -12.9150  -19.4392   11.7454 C   0  0  0  0  0  0  0  0  0  0  0  0
  -11.4316  -19.6212    9.7422 C   0  0  0  0  0  0  0  0  0  0  0  0
  -10.7549  -20.6864   11.8994 C   0  0  0  0  0  0  0  0  0  0  0  0
  1  2  1  0
  1  9  1  0
  2  3  2  0
  2  4  1  0
  4  5  2  0
  4  8  1  0
  5  6  1  0
  6  7  1  0
  7  8  2  0
  9 10  2  0
  9 13  1  0
 10 11  1  0
 11 12  1  0
 12 13  2  0
 12 14  1  0
 14 15  1  0
 14 16  1  0
 14 17  1  0
M  END
>  <Gold.Gold.Protein.RotatedWaterAtoms>  (434) 


>  <Gold.Id.Protein>  (434) 


>  <Gold.PLP.Chemscore.CHOScore>  (434) 
0.0000

>  <Gold.PLP.Chemscore.Hbond>  (434) 
2.5152

>  <Gold.PLP.Chemscore.Internal.Correction>  (434) 
0.0016

>  <Gold.PLP.Chemscore.Metal>  (434) 
0.0000

>  <Gold.PLP.Fitness>  (434) 
43.5995

>  <Gold.PLP.PLP>  (434) 
-36.3552

>  <Gold.PLP.ligand.clash>  (434) 
0.0000

>  <Gold.PLP.ligand.torsion>  (434) 
0.1514

>  <Gold.PLP.part.buried>  (434) 
-6.8732

>  <Gold.PLP.part.hbond>  (434) 
-5.3842

>  <Gold.PLP.part.metal>  (434) 
0.0000

>  <Gold.PLP.part.nonpolar>  (434) 
-23.5153

>  <Gold.PLP.part.repulsive>  (434) 
0.7885

>  <Gold.Protein.RotatedAtoms>  (434) 


>  <Gold.Protein.RotatedTorsions>  (434) 


>  <Gold.Protein.RotatedWaterAtoms>  (434) 


>  <Gold.Version>  (434) 
5.3.0

>  <PLP.Chemscore.CHOScore>  (434) 


>  <PLP.Chemscore.Hbond>  (434) 


>  <PLP.Chemscore.Internal.Correction>  (434) 


>  <PLP.Chemscore.Metal>  (434) 


>  <PLP.Fitness>  (434) 


>  <PLP.PLP>  (434) 


>  <PLP.ligand.clash>  (434) 


>  <PLP.ligand.torsion>  (434) 


>  <PLP.part.buried>  (434) 


>  <PLP.part.hbond>  (434) 


>  <PLP.part.metal>  (434) 


>  <PLP.part.nonpolar>  (434) 


>  <PLP.part.repulsive>  (434) 


>  <Version>  (434) 


$$$$
3434|Compound_2115|Compounds_3D_F|sdf|615|dock3|1
     RDKit          3D

 17 18  0  0  0  0  0  0  0  0999 V2000
   -8.0932  -14.9831   12.3507 N   0  0  0  0  0  0  0  0  0  0  0  0
   -8.4060  -13.7186   12.0039 C   0  0  0  0  0  0  0  0  0  0  0  0
   -9.4936  -13.4728   11.5210 O   0  0  0  0  0  0  0  0  0  0  0  0
   -7.4256  -12.6317   12.2116 C   0  0  0  0  0  0  0  0  0  0  0  0
   -6.2525  -12.7483   12.7954 N   0  0  0  0  0  0  0  0  0  0  0  0
   -5.6757  -11.5964   12.7962 N   0  0  0  0  0  0  0  0  0  0  0  0
   -6.4920  -10.7090   12.1997 C   0  0  0  0  0  0  0  0  0  0  0  0
   -7.5729  -11.3491   11.8326 N   0  0  0  0  0  0  0  0  0  0  0  0
   -9.0151  -16.0096   12.1506 C   0  0  0  0  0  0  0  0  0  0  0  0
  -10.2706  -16.0190   12.5132 N   0  0  0  0  0  0  0  0  0  0  0  0
  -10.8139  -17.0527   12.1994 O   0  0  0  0  0  0  0  0  0  0  0  0
   -9.9722  -17.8871   11.5734 C   0  0  0  0  0  0  0  0  0  0  0  0
   -8.7784  -17.2537   11.5068 C   0  0  0  0  0  0  0  0  0  0  0  0
  -10.2936  -19.2594   11.0400 C   0  0  0  0  0  0  0  0  0  0  0  0
  -11.3345  -19.1419    9.9240 C   0  0  0  0  0  0  0  0  0  0  0  0
   -9.0196  -19.9002   10.4832 C   0  0  0  0  0  0  0  0  0  0  0  0
  -10.8510  -20.1290   12.1684 C   0  0  0  0  0  0  0  0  0  0  0  0
  1  2  1  0
  1  9  1  0
  2  3  2  0
  2  4  1  0
  4  5  2  0
  4  8  1  0
  5  6  1  0
  6  7  1  0
  7  8  2  0
  9 10  2  0
  9 13  1  0
 10 11  1  0
 11 12  1  0
 12 13  2  0
 12 14  1  0
 14 15  1  0
 14 16  1  0
 14 17  1  0
M  END
>  <Gold.Gold.Protein.RotatedWaterAtoms>  (435) 


>  <Gold.Id.Protein>  (435) 


>  <Gold.PLP.Chemscore.CHOScore>  (435) 
0.0000

>  <Gold.PLP.Chemscore.Hbond>  (435) 
1.8200

>  <Gold.PLP.Chemscore.Internal.Correction>  (435) 
0.0016

>  <Gold.PLP.Chemscore.Metal>  (435) 
0.0000

>  <Gold.PLP.Fitness>  (435) 
43.4029

>  <Gold.PLP.PLP>  (435) 
-38.9316

>  <Gold.PLP.ligand.clash>  (435) 
0.0000

>  <Gold.PLP.ligand.torsion>  (435) 
0.4951

>  <Gold.PLP.part.buried>  (435) 
-9.6037

>  <Gold.PLP.part.hbond>  (435) 
-4.3289

>  <Gold.PLP.part.metal>  (435) 
0.0000

>  <Gold.PLP.part.nonpolar>  (435) 
-26.9712

>  <Gold.PLP.part.repulsive>  (435) 
1.0068

>  <Gold.Protein.RotatedAtoms>  (435) 


>  <Gold.Protein.RotatedTorsions>  (435) 


>  <Gold.Protein.RotatedWaterAtoms>  (435) 


>  <Gold.Version>  (435) 
5.3.0

>  <PLP.Chemscore.CHOScore>  (435) 


>  <PLP.Chemscore.Hbond>  (435) 


>  <PLP.Chemscore.Internal.Correction>  (435) 


>  <PLP.Chemscore.Metal>  (435) 


>  <PLP.Fitness>  (435) 


>  <PLP.PLP>  (435) 


>  <PLP.ligand.clash>  (435) 


>  <PLP.ligand.torsion>  (435) 


>  <PLP.part.buried>  (435) 


>  <PLP.part.hbond>  (435) 


>  <PLP.part.metal>  (435) 


>  <PLP.part.nonpolar>  (435) 


>  <PLP.part.repulsive>  (435) 


>  <Version>  (435) 


$$$$
3435|Compound_2116|Compounds_3D_F|sdf|616|dock1|1
     RDKit          3D

 17 18  0  0  0  0  0  0  0  0999 V2000
   -8.7595  -15.2844   12.2599 N   0  0  0  0  0  0  0  0  0  0  0  0
   -7.4384  -15.5192   12.1306 C   0  0  0  0  0  0  0  0  0  0  0  0
   -7.0375  -16.6527   11.9544 O   0  0  0  0  0  0  0  0  0  0  0  0
   -6.4782  -14.3974   12.2029 C   0  0  0  0  0  0  0  0  0  0  0  0
   -5.1678  -14.5012   12.2237 N   0  0  0  0  0  0  0  0  0  0  0  0
   -4.6606  -13.3181   12.2890 N   0  0  0  0  0  0  0  0  0  0  0  0
   -5.6652  -12.4237   12.3125 C   0  0  0  0  0  0  0  0  0  0  0  0
   -6.7904  -13.0896   12.2543 N   0  0  0  0  0  0  0  0  0  0  0  0
   -9.6623  -16.3390   12.1970 C   0  0  0  0  0  0  0  0  0  0  0  0
  -10.9087  -16.4227   12.6433 N   0  0  0  0  0  0  0  0  0  0  0  0
  -11.5973  -17.4693   12.5004 N   0  0  0  0  0  0  0  0  0  0  0  0
  -11.1250  -18.5445   11.9004 C   0  0  0  0  0  0  0  0  0  0  0  0
   -9.4802  -17.9712   11.4827 S   0  0  0  0  0  0  0  0  0  0  0  0
  -11.7827  -19.8743   11.6368 C   0  0  0  0  0  0  0  0  0  0  0  0
  -11.7718  -20.1361   10.2628 F   0  0  0  0  0  0  0  0  0  0  0  0
  -11.0826  -20.8813   12.3093 F   0  0  0  0  0  0  0  0  0  0  0  0
  -13.1042  -19.8402   12.0949 F   0  0  0  0  0  0  0  0  0  0  0  0
  1  2  1  0
  1  9  1  0
  2  3  2  0
  2  4  1  0
  4  5  2  0
  4  8  1  0
  5  6  1  0
  6  7  1  0
  7  8  2  0
  9 10  2  0
  9 13  1  0
 10 11  1  0
 11 12  2  0
 12 13  1  0
 12 14  1  0
 14 15  1  0
 14 16  1  0
 14 17  1  0
M  END
>  <Gold.Gold.Protein.RotatedWaterAtoms>  (436) 


>  <Gold.Id.Protein>  (436) 


>  <Gold.PLP.Chemscore.CHOScore>  (436) 
0.0000

>  <Gold.PLP.Chemscore.Hbond>  (436) 
2.7181

>  <Gold.PLP.Chemscore.Internal.Correction>  (436) 
0.0081

>  <Gold.PLP.Chemscore.Metal>  (436) 
0.0000

>  <Gold.PLP.Fitness>  (436) 
41.9392

>  <Gold.PLP.PLP>  (436) 
-34.0563

>  <Gold.PLP.ligand.clash>  (436) 
0.0000

>  <Gold.PLP.ligand.torsion>  (436) 
0.1398

>  <Gold.PLP.part.buried>  (436) 
-4.1968

>  <Gold.PLP.part.hbond>  (436) 
-6.9105

>  <Gold.PLP.part.metal>  (436) 
0.0000

>  <Gold.PLP.part.nonpolar>  (436) 
-23.3434

>  <Gold.PLP.part.repulsive>  (436) 
0.8426

>  <Gold.Protein.RotatedAtoms>  (436) 


>  <Gold.Protein.RotatedTorsions>  (436) 


>  <Gold.Protein.RotatedWaterAtoms>  (436) 


>  <Gold.Version>  (436) 
5.3.0

>  <PLP.Chemscore.CHOScore>  (436) 


>  <PLP.Chemscore.Hbond>  (436) 


>  <PLP.Chemscore.Internal.Correction>  (436) 


>  <PLP.Chemscore.Metal>  (436) 


>  <PLP.Fitness>  (436) 


>  <PLP.PLP>  (436) 


>  <PLP.ligand.clash>  (436) 


>  <PLP.ligand.torsion>  (436) 


>  <PLP.part.buried>  (436) 


>  <PLP.part.hbond>  (436) 


>  <PLP.part.metal>  (436) 


>  <PLP.part.nonpolar>  (436) 


>  <PLP.part.repulsive>  (436) 


>  <Version>  (436) 


$$$$
3436|Compound_2116|Compounds_3D_F|sdf|616|dock2|1
     RDKit          3D

 17 18  0  0  0  0  0  0  0  0999 V2000
   -8.9466  -16.8261   11.9003 N   0  0  0  0  0  0  0  0  0  0  0  0
   -8.0145  -16.6282   10.9469 C   0  0  0  0  0  0  0  0  0  0  0  0
   -8.2249  -16.9928    9.8070 O   0  0  0  0  0  0  0  0  0  0  0  0
   -6.7369  -15.9675   11.2887 C   0  0  0  0  0  0  0  0  0  0  0  0
   -5.7367  -15.7451   10.4650 N   0  0  0  0  0  0  0  0  0  0  0  0
   -4.7938  -15.1498   11.1113 N   0  0  0  0  0  0  0  0  0  0  0  0
   -5.1898  -14.9822   12.3860 C   0  0  0  0  0  0  0  0  0  0  0  0
   -6.3938  -15.4832   12.4962 N   0  0  0  0  0  0  0  0  0  0  0  0
  -10.1458  -17.4515   11.5809 C   0  0  0  0  0  0  0  0  0  0  0  0
  -11.2257  -17.6560   12.3237 N   0  0  0  0  0  0  0  0  0  0  0  0
  -12.2420  -18.2488   11.8705 N   0  0  0  0  0  0  0  0  0  0  0  0
  -12.2973  -18.7026   10.6335 C   0  0  0  0  0  0  0  0  0  0  0  0
  -10.6799  -18.2049   10.0464 S   0  0  0  0  0  0  0  0  0  0  0  0
  -13.4064  -19.4282    9.9166 C   0  0  0  0  0  0  0  0  0  0  0  0
  -14.4359  -19.7150   10.8190 F   0  0  0  0  0  0  0  0  0  0  0  0
  -13.9004  -18.6216    8.8861 F   0  0  0  0  0  0  0  0  0  0  0  0
  -12.9119  -20.6210    9.3781 F   0  0  0  0  0  0  0  0  0  0  0  0
  1  2  1  0
  1  9  1  0
  2  3  2  0
  2  4  1  0
  4  5  2  0
  4  8  1  0
  5  6  1  0
  6  7  1  0
  7  8  2  0
  9 10  2  0
  9 13  1  0
 10 11  1  0
 11 12  2  0
 12 13  1  0
 12 14  1  0
 14 15  1  0
 14 16  1  0
 14 17  1  0
M  END
>  <Gold.Gold.Protein.RotatedWaterAtoms>  (437) 


>  <Gold.Id.Protein>  (437) 


>  <Gold.PLP.Chemscore.CHOScore>  (437) 
0.4163

>  <Gold.PLP.Chemscore.Hbond>  (437) 
1.9920

>  <Gold.PLP.Chemscore.Internal.Correction>  (437) 
0.0002

>  <Gold.PLP.Chemscore.Metal>  (437) 
0.0000

>  <Gold.PLP.Fitness>  (437) 
37.2711

>  <Gold.PLP.PLP>  (437) 
-30.3325

>  <Gold.PLP.ligand.clash>  (437) 
0.0596

>  <Gold.PLP.ligand.torsion>  (437) 
0.1135

>  <Gold.PLP.part.buried>  (437) 
-4.0663

>  <Gold.PLP.part.hbond>  (437) 
-3.0843

>  <Gold.PLP.part.metal>  (437) 
0.0000

>  <Gold.PLP.part.nonpolar>  (437) 
-24.4024

>  <Gold.PLP.part.repulsive>  (437) 
0.5188

>  <Gold.Protein.RotatedAtoms>  (437) 


>  <Gold.Protein.RotatedTorsions>  (437) 


>  <Gold.Protein.RotatedWaterAtoms>  (437) 


>  <Gold.Version>  (437) 
5.3.0

>  <PLP.Chemscore.CHOScore>  (437) 


>  <PLP.Chemscore.Hbond>  (437) 


>  <PLP.Chemscore.Internal.Correction>  (437) 


>  <PLP.Chemscore.Metal>  (437) 


>  <PLP.Fitness>  (437) 


>  <PLP.PLP>  (437) 


>  <PLP.ligand.clash>  (437) 


>  <PLP.ligand.torsion>  (437) 


>  <PLP.part.buried>  (437) 


>  <PLP.part.hbond>  (437) 


>  <PLP.part.metal>  (437) 


>  <PLP.part.nonpolar>  (437) 


>  <PLP.part.repulsive>  (437) 


>  <Version>  (437) 


$$$$
3437|Compound_2116|Compounds_3D_F|sdf|616|dock3|1
     RDKit          3D

 17 18  0  0  0  0  0  0  0  0999 V2000
   -7.8957  -15.4974   12.0893 N   0  0  0  0  0  0  0  0  0  0  0  0
   -8.2040  -14.1867   12.1537 C   0  0  0  0  0  0  0  0  0  0  0  0
   -9.3673  -13.8353   12.1457 O   0  0  0  0  0  0  0  0  0  0  0  0
   -7.1267  -13.1775   12.2340 C   0  0  0  0  0  0  0  0  0  0  0  0
   -7.2598  -11.8860   12.0274 N   0  0  0  0  0  0  0  0  0  0  0  0
   -6.1118  -11.3218   12.1852 N   0  0  0  0  0  0  0  0  0  0  0  0
   -5.2103  -12.2692   12.5008 C   0  0  0  0  0  0  0  0  0  0  0  0
   -5.8377  -13.4173   12.5363 N   0  0  0  0  0  0  0  0  0  0  0  0
   -8.9077  -16.4463   12.0087 C   0  0  0  0  0  0  0  0  0  0  0  0
  -10.1890  -16.3575   12.3411 N   0  0  0  0  0  0  0  0  0  0  0  0
  -10.9812  -17.3282   12.2006 N   0  0  0  0  0  0  0  0  0  0  0  0
  -10.5893  -18.4905   11.7160 C   0  0  0  0  0  0  0  0  0  0  0  0
   -8.8588  -18.1365   11.4185 S   0  0  0  0  0  0  0  0  0  0  0  0
  -11.3741  -19.7542   11.4761 C   0  0  0  0  0  0  0  0  0  0  0  0
  -10.5223  -20.7447   10.9765 F   0  0  0  0  0  0  0  0  0  0  0  0
  -11.9379  -20.1876   12.6806 F   0  0  0  0  0  0  0  0  0  0  0  0
  -12.3917  -19.5027   10.5495 F   0  0  0  0  0  0  0  0  0  0  0  0
  1  2  1  0
  1  9  1  0
  2  3  2  0
  2  4  1  0
  4  5  2  0
  4  8  1  0
  5  6  1  0
  6  7  1  0
  7  8  2  0
  9 10  2  0
  9 13  1  0
 10 11  1  0
 11 12  2  0
 12 13  1  0
 12 14  1  0
 14 15  1  0
 14 16  1  0
 14 17  1  0
M  END
>  <Gold.Gold.Protein.RotatedWaterAtoms>  (438) 


>  <Gold.Id.Protein>  (438) 


>  <Gold.PLP.Chemscore.CHOScore>  (438) 
1.2453

>  <Gold.PLP.Chemscore.Hbond>  (438) 
0.8125

>  <Gold.PLP.Chemscore.Internal.Correction>  (438) 
0.0002

>  <Gold.PLP.Chemscore.Metal>  (438) 
0.0000

>  <Gold.PLP.Fitness>  (438) 
41.3720

>  <Gold.PLP.PLP>  (438) 
-35.6091

>  <Gold.PLP.ligand.clash>  (438) 
0.0000

>  <Gold.PLP.ligand.torsion>  (438) 
0.2054

>  <Gold.PLP.part.buried>  (438) 
-10.5119

>  <Gold.PLP.part.hbond>  (438) 
-3.6062

>  <Gold.PLP.part.metal>  (438) 
0.0000

>  <Gold.PLP.part.nonpolar>  (438) 
-24.4451

>  <Gold.PLP.part.repulsive>  (438) 
0.8337

>  <Gold.Protein.RotatedAtoms>  (438) 


>  <Gold.Protein.RotatedTorsions>  (438) 


>  <Gold.Protein.RotatedWaterAtoms>  (438) 


>  <Gold.Version>  (438) 
5.3.0

>  <PLP.Chemscore.CHOScore>  (438) 


>  <PLP.Chemscore.Hbond>  (438) 


>  <PLP.Chemscore.Internal.Correction>  (438) 


>  <PLP.Chemscore.Metal>  (438) 


>  <PLP.Fitness>  (438) 


>  <PLP.PLP>  (438) 


>  <PLP.ligand.clash>  (438) 


>  <PLP.ligand.torsion>  (438) 


>  <PLP.part.buried>  (438) 


>  <PLP.part.hbond>  (438) 


>  <PLP.part.metal>  (438) 


>  <PLP.part.nonpolar>  (438) 


>  <PLP.part.repulsive>  (438) 


>  <Version>  (438) 


$$$$
3438|Compound_2116|Compounds_3D_F|sdf|616|dock4|1
     RDKit          3D

 17 18  0  0  0  0  0  0  0  0999 V2000
   -8.9557  -17.0181   11.7297 N   0  0  0  0  0  0  0  0  0  0  0  0
   -7.9762  -16.9701   10.8049 C   0  0  0  0  0  0  0  0  0  0  0  0
   -8.1583  -17.4468    9.7021 O   0  0  0  0  0  0  0  0  0  0  0  0
   -6.6810  -16.3372   11.1329 C   0  0  0  0  0  0  0  0  0  0  0  0
   -5.7252  -16.0441   10.2792 N   0  0  0  0  0  0  0  0  0  0  0  0
   -4.7483  -15.5027   10.9224 N   0  0  0  0  0  0  0  0  0  0  0  0
   -5.0762  -15.4434   12.2257 C   0  0  0  0  0  0  0  0  0  0  0  0
   -6.2738  -15.9547   12.3570 N   0  0  0  0  0  0  0  0  0  0  0  0
  -10.1717  -17.6173   11.4237 C   0  0  0  0  0  0  0  0  0  0  0  0
  -11.1971  -17.9168   12.2103 N   0  0  0  0  0  0  0  0  0  0  0  0
  -12.2399  -18.4664   11.7630 N   0  0  0  0  0  0  0  0  0  0  0  0
  -12.3787  -18.7781   10.4891 C   0  0  0  0  0  0  0  0  0  0  0  0
  -10.8075  -18.1986    9.8535 S   0  0  0  0  0  0  0  0  0  0  0  0
  -13.5319  -19.4308    9.7717 C   0  0  0  0  0  0  0  0  0  0  0  0
  -14.4797  -19.8606   10.7062 F   0  0  0  0  0  0  0  0  0  0  0  0
  -14.1204  -18.5082    8.9006 F   0  0  0  0  0  0  0  0  0  0  0  0
  -13.0655  -20.5290    9.0412 F   0  0  0  0  0  0  0  0  0  0  0  0
  1  2  1  0
  1  9  1  0
  2  3  2  0
  2  4  1  0
  4  5  2  0
  4  8  1  0
  5  6  1  0
  6  7  1  0
  7  8  2  0
  9 10  2  0
  9 13  1  0
 10 11  1  0
 11 12  2  0
 12 13  1  0
 12 14  1  0
 14 15  1  0
 14 16  1  0
 14 17  1  0
M  END
>  <Gold.Gold.Protein.RotatedWaterAtoms>  (439) 


>  <Gold.Id.Protein>  (439) 


>  <Gold.PLP.Chemscore.CHOScore>  (439) 
0.3501

>  <Gold.PLP.Chemscore.Hbond>  (439) 
1.9440

>  <Gold.PLP.Chemscore.Internal.Correction>  (439) 
0.0002

>  <Gold.PLP.Chemscore.Metal>  (439) 
0.0000

>  <Gold.PLP.Fitness>  (439) 
37.3388

>  <Gold.PLP.PLP>  (439) 
-30.9231

>  <Gold.PLP.ligand.clash>  (439) 
0.0000

>  <Gold.PLP.ligand.torsion>  (439) 
0.2334

>  <Gold.PLP.part.buried>  (439) 
-3.9950

>  <Gold.PLP.part.hbond>  (439) 
-2.7391

>  <Gold.PLP.part.metal>  (439) 
0.0000

>  <Gold.PLP.part.nonpolar>  (439) 
-23.5553

>  <Gold.PLP.part.repulsive>  (439) 
0.4124

>  <Gold.Protein.RotatedAtoms>  (439) 


>  <Gold.Protein.RotatedTorsions>  (439) 


>  <Gold.Protein.RotatedWaterAtoms>  (439) 


>  <Gold.Version>  (439) 
5.3.0

>  <PLP.Chemscore.CHOScore>  (439) 


>  <PLP.Chemscore.Hbond>  (439) 


>  <PLP.Chemscore.Internal.Correction>  (439) 


>  <PLP.Chemscore.Metal>  (439) 


>  <PLP.Fitness>  (439) 


>  <PLP.PLP>  (439) 


>  <PLP.ligand.clash>  (439) 


>  <PLP.ligand.torsion>  (439) 


>  <PLP.part.buried>  (439) 


>  <PLP.part.hbond>  (439) 


>  <PLP.part.metal>  (439) 


>  <PLP.part.nonpolar>  (439) 


>  <PLP.part.repulsive>  (439) 


>  <Version>  (439) 


$$$$
3439|Compound_2116|Compounds_3D_F|sdf|616|dock5|1
     RDKit          3D

 17 18  0  0  0  0  0  0  0  0999 V2000
   -8.7688  -15.3539   12.2859 N   0  0  0  0  0  0  0  0  0  0  0  0
   -7.4566  -15.5743   12.0702 C   0  0  0  0  0  0  0  0  0  0  0  0
   -7.0629  -16.6954   11.8157 O   0  0  0  0  0  0  0  0  0  0  0  0
   -6.4972  -14.4519   12.1434 C   0  0  0  0  0  0  0  0  0  0  0  0
   -5.1873  -14.5556   12.1852 N   0  0  0  0  0  0  0  0  0  0  0  0
   -4.6808  -13.3719   12.2438 N   0  0  0  0  0  0  0  0  0  0  0  0
   -5.6853  -12.4771   12.2411 C   0  0  0  0  0  0  0  0  0  0  0  0
   -6.8097  -13.1435   12.1740 N   0  0  0  0  0  0  0  0  0  0  0  0
   -9.6706  -16.4093   12.2222 C   0  0  0  0  0  0  0  0  0  0  0  0
  -10.9296  -16.4818   12.6340 N   0  0  0  0  0  0  0  0  0  0  0  0
  -11.6148  -17.5312   12.4964 N   0  0  0  0  0  0  0  0  0  0  0  0
  -11.1264  -18.6209   11.9366 C   0  0  0  0  0  0  0  0  0  0  0  0
   -9.4695  -18.0585   11.5532 S   0  0  0  0  0  0  0  0  0  0  0  0
  -11.7776  -19.9564   11.6861 C   0  0  0  0  0  0  0  0  0  0  0  0
  -13.0944  -19.9291   12.1573 F   0  0  0  0  0  0  0  0  0  0  0  0
  -11.7787  -20.2235   10.3131 F   0  0  0  0  0  0  0  0  0  0  0  0
  -11.0634  -20.9565   12.3546 F   0  0  0  0  0  0  0  0  0  0  0  0
  1  2  1  0
  1  9  1  0
  2  3  2  0
  2  4  1  0
  4  5  2  0
  4  8  1  0
  5  6  1  0
  6  7  1  0
  7  8  2  0
  9 10  2  0
  9 13  1  0
 10 11  1  0
 11 12  2  0
 12 13  1  0
 12 14  1  0
 14 15  1  0
 14 16  1  0
 14 17  1  0
M  END
>  <Gold.Gold.Protein.RotatedWaterAtoms>  (440) 


>  <Gold.Id.Protein>  (440) 


>  <Gold.PLP.Chemscore.CHOScore>  (440) 
0.0000

>  <Gold.PLP.Chemscore.Hbond>  (440) 
2.6238

>  <Gold.PLP.Chemscore.Internal.Correction>  (440) 
0.0002

>  <Gold.PLP.Chemscore.Metal>  (440) 
0.0000

>  <Gold.PLP.Fitness>  (440) 
40.9881

>  <Gold.PLP.PLP>  (440) 
-33.3540

>  <Gold.PLP.ligand.clash>  (440) 
0.0000

>  <Gold.PLP.ligand.torsion>  (440) 
0.1187

>  <Gold.PLP.part.buried>  (440) 
-4.3974

>  <Gold.PLP.part.hbond>  (440) 
-7.0343

>  <Gold.PLP.part.metal>  (440) 
0.0000

>  <Gold.PLP.part.nonpolar>  (440) 
-22.7387

>  <Gold.PLP.part.repulsive>  (440) 
0.8298

>  <Gold.Protein.RotatedAtoms>  (440) 


>  <Gold.Protein.RotatedTorsions>  (440) 


>  <Gold.Protein.RotatedWaterAtoms>  (440) 


>  <Gold.Version>  (440) 
5.3.0

>  <PLP.Chemscore.CHOScore>  (440) 


>  <PLP.Chemscore.Hbond>  (440) 


>  <PLP.Chemscore.Internal.Correction>  (440) 


>  <PLP.Chemscore.Metal>  (440) 


>  <PLP.Fitness>  (440) 


>  <PLP.PLP>  (440) 


>  <PLP.ligand.clash>  (440) 


>  <PLP.ligand.torsion>  (440) 


>  <PLP.part.buried>  (440) 


>  <PLP.part.hbond>  (440) 


>  <PLP.part.metal>  (440) 


>  <PLP.part.nonpolar>  (440) 


>  <PLP.part.repulsive>  (440) 


>  <Version>  (440) 


$$$$
3440|Compound_2116|Compounds_3D_F|sdf|616|dock6|1
     RDKit          3D

 17 18  0  0  0  0  0  0  0  0999 V2000
   -8.2409  -15.8940   12.0073 N   0  0  0  0  0  0  0  0  0  0  0  0
   -8.2956  -14.5501   12.0967 C   0  0  0  0  0  0  0  0  0  0  0  0
   -9.3718  -13.9865   12.1216 O   0  0  0  0  0  0  0  0  0  0  0  0
   -7.0461  -13.7629   12.1647 C   0  0  0  0  0  0  0  0  0  0  0  0
   -5.8245  -14.2487   12.1568 N   0  0  0  0  0  0  0  0  0  0  0  0
   -4.9899  -13.2691   12.2280 N   0  0  0  0  0  0  0  0  0  0  0  0
   -5.6853  -12.1190   12.2848 C   0  0  0  0  0  0  0  0  0  0  0  0
   -6.9576  -12.4224   12.2407 N   0  0  0  0  0  0  0  0  0  0  0  0
   -9.4149  -16.6344   11.9384 C   0  0  0  0  0  0  0  0  0  0  0  0
  -10.5964  -16.4145   12.5002 N   0  0  0  0  0  0  0  0  0  0  0  0
  -11.5693  -17.1983   12.3309 N   0  0  0  0  0  0  0  0  0  0  0  0
  -11.4762  -18.2835   11.5872 C   0  0  0  0  0  0  0  0  0  0  0  0
   -9.7696  -18.1537   11.0590 S   0  0  0  0  0  0  0  0  0  0  0  0
  -12.5113  -19.3311   11.2685 C   0  0  0  0  0  0  0  0  0  0  0  0
  -12.9977  -19.8835   12.4580 F   0  0  0  0  0  0  0  0  0  0  0  0
  -13.5656  -18.7437   10.5615 F   0  0  0  0  0  0  0  0  0  0  0  0
  -11.9316  -20.3379   10.4891 F   0  0  0  0  0  0  0  0  0  0  0  0
  1  2  1  0
  1  9  1  0
  2  3  2  0
  2  4  1  0
  4  5  2  0
  4  8  1  0
  5  6  1  0
  6  7  1  0
  7  8  2  0
  9 10  2  0
  9 13  1  0
 10 11  1  0
 11 12  2  0
 12 13  1  0
 12 14  1  0
 14 15  1  0
 14 16  1  0
 14 17  1  0
M  END
>  <Gold.Gold.Protein.RotatedWaterAtoms>  (441) 


>  <Gold.Id.Protein>  (441) 


>  <Gold.PLP.Chemscore.CHOScore>  (441) 
0.0000

>  <Gold.PLP.Chemscore.Hbond>  (441) 
2.1338

>  <Gold.PLP.Chemscore.Internal.Correction>  (441) 
0.0002

>  <Gold.PLP.Chemscore.Metal>  (441) 
0.0000

>  <Gold.PLP.Fitness>  (441) 
41.1458

>  <Gold.PLP.PLP>  (441) 
-35.2713

>  <Gold.PLP.ligand.clash>  (441) 
0.0000

>  <Gold.PLP.ligand.torsion>  (441) 
0.2635

>  <Gold.PLP.part.buried>  (441) 
-4.7865

>  <Gold.PLP.part.hbond>  (441) 
-5.5751

>  <Gold.PLP.part.metal>  (441) 
0.0000

>  <Gold.PLP.part.nonpolar>  (441) 
-23.5590

>  <Gold.PLP.part.repulsive>  (441) 
0.7769

>  <Gold.Protein.RotatedAtoms>  (441) 


>  <Gold.Protein.RotatedTorsions>  (441) 


>  <Gold.Protein.RotatedWaterAtoms>  (441) 


>  <Gold.Version>  (441) 
5.3.0

>  <PLP.Chemscore.CHOScore>  (441) 


>  <PLP.Chemscore.Hbond>  (441) 


>  <PLP.Chemscore.Internal.Correction>  (441) 


>  <PLP.Chemscore.Metal>  (441) 


>  <PLP.Fitness>  (441) 


>  <PLP.PLP>  (441) 


>  <PLP.ligand.clash>  (441) 


>  <PLP.ligand.torsion>  (441) 


>  <PLP.part.buried>  (441) 


>  <PLP.part.hbond>  (441) 


>  <PLP.part.metal>  (441) 


>  <PLP.part.nonpolar>  (441) 


>  <PLP.part.repulsive>  (441) 


>  <Version>  (441) 


$$$$
3441|Compound_2116|Compounds_3D_F|sdf|616|dock7|1
     RDKit          3D

 17 18  0  0  0  0  0  0  0  0999 V2000
   -8.7506  -15.3187   12.2394 N   0  0  0  0  0  0  0  0  0  0  0  0
   -7.4226  -15.5445   12.1893 C   0  0  0  0  0  0  0  0  0  0  0  0
   -7.0026  -16.6817   12.1058 O   0  0  0  0  0  0  0  0  0  0  0  0
   -6.4779  -14.4083   12.2357 C   0  0  0  0  0  0  0  0  0  0  0  0
   -5.1660  -14.4932   12.2449 N   0  0  0  0  0  0  0  0  0  0  0  0
   -4.6752  -13.3022   12.2879 N   0  0  0  0  0  0  0  0  0  0  0  0
   -5.6922  -12.4218   12.3082 C   0  0  0  0  0  0  0  0  0  0  0  0
   -6.8082  -13.1044   12.2709 N   0  0  0  0  0  0  0  0  0  0  0  0
   -9.6391  -16.3866   12.2009 C   0  0  0  0  0  0  0  0  0  0  0  0
  -10.9016  -16.4608   12.6013 N   0  0  0  0  0  0  0  0  0  0  0  0
  -11.5728  -17.5224   12.4911 N   0  0  0  0  0  0  0  0  0  0  0  0
  -11.0655  -18.6238   11.9727 C   0  0  0  0  0  0  0  0  0  0  0  0
   -9.4112  -18.0542   11.5888 S   0  0  0  0  0  0  0  0  0  0  0  0
  -11.6982  -19.9746   11.7594 C   0  0  0  0  0  0  0  0  0  0  0  0
  -11.0164  -20.9338   12.5155 F   0  0  0  0  0  0  0  0  0  0  0  0
  -13.0374  -19.9299   12.1604 F   0  0  0  0  0  0  0  0  0  0  0  0
  -11.6290  -20.3135   10.4038 F   0  0  0  0  0  0  0  0  0  0  0  0
  1  2  1  0
  1  9  1  0
  2  3  2  0
  2  4  1  0
  4  5  2  0
  4  8  1  0
  5  6  1  0
  6  7  1  0
  7  8  2  0
  9 10  2  0
  9 13  1  0
 10 11  1  0
 11 12  2  0
 12 13  1  0
 12 14  1  0
 14 15  1  0
 14 16  1  0
 14 17  1  0
M  END
>  <Gold.Gold.Protein.RotatedWaterAtoms>  (442) 


>  <Gold.Id.Protein>  (442) 


>  <Gold.PLP.Chemscore.CHOScore>  (442) 
0.0000

>  <Gold.PLP.Chemscore.Hbond>  (442) 
2.6520

>  <Gold.PLP.Chemscore.Internal.Correction>  (442) 
0.0002

>  <Gold.PLP.Chemscore.Metal>  (442) 
0.0000

>  <Gold.PLP.Fitness>  (442) 
41.6503

>  <Gold.PLP.PLP>  (442) 
-33.9437

>  <Gold.PLP.ligand.clash>  (442) 
0.0000

>  <Gold.PLP.ligand.torsion>  (442) 
0.1248

>  <Gold.PLP.part.buried>  (442) 
-4.5997

>  <Gold.PLP.part.hbond>  (442) 
-6.7454

>  <Gold.PLP.part.metal>  (442) 
0.0000

>  <Gold.PLP.part.nonpolar>  (442) 
-23.4340

>  <Gold.PLP.part.repulsive>  (442) 
0.8339

>  <Gold.Protein.RotatedAtoms>  (442) 


>  <Gold.Protein.RotatedTorsions>  (442) 


>  <Gold.Protein.RotatedWaterAtoms>  (442) 


>  <Gold.Version>  (442) 
5.3.0

>  <PLP.Chemscore.CHOScore>  (442) 


>  <PLP.Chemscore.Hbond>  (442) 


>  <PLP.Chemscore.Internal.Correction>  (442) 


>  <PLP.Chemscore.Metal>  (442) 


>  <PLP.Fitness>  (442) 


>  <PLP.PLP>  (442) 


>  <PLP.ligand.clash>  (442) 


>  <PLP.ligand.torsion>  (442) 


>  <PLP.part.buried>  (442) 


>  <PLP.part.hbond>  (442) 


>  <PLP.part.metal>  (442) 


>  <PLP.part.nonpolar>  (442) 


>  <PLP.part.repulsive>  (442) 


>  <Version>  (442) 


$$$$
3442|Compound_2116|Compounds_3D_F|sdf|616|dock8|1
     RDKit          3D

 17 18  0  0  0  0  0  0  0  0999 V2000
   -8.8013  -16.9775   11.7955 N   0  0  0  0  0  0  0  0  0  0  0  0
   -7.8032  -17.0298   10.8910 C   0  0  0  0  0  0  0  0  0  0  0  0
   -7.9680  -17.6131    9.8378 O   0  0  0  0  0  0  0  0  0  0  0  0
   -6.5086  -16.3773   11.1809 C   0  0  0  0  0  0  0  0  0  0  0  0
   -5.5650  -16.1086   10.3059 N   0  0  0  0  0  0  0  0  0  0  0  0
   -4.5844  -15.5384   10.9179 N   0  0  0  0  0  0  0  0  0  0  0  0
   -4.8973  -15.4349   12.2221 C   0  0  0  0  0  0  0  0  0  0  0  0
   -6.0897  -15.9490   12.3857 N   0  0  0  0  0  0  0  0  0  0  0  0
  -10.0167  -17.5948   11.5258 C   0  0  0  0  0  0  0  0  0  0  0  0
  -11.1506  -17.5838   12.2144 N   0  0  0  0  0  0  0  0  0  0  0  0
  -12.1737  -18.2066   11.8208 N   0  0  0  0  0  0  0  0  0  0  0  0
  -12.1832  -18.9070   10.7034 C   0  0  0  0  0  0  0  0  0  0  0  0
  -10.5045  -18.6261   10.1452 S   0  0  0  0  0  0  0  0  0  0  0  0
  -13.2914  -19.7103   10.0731 C   0  0  0  0  0  0  0  0  0  0  0  0
  -12.8604  -21.0264    9.8771 F   0  0  0  0  0  0  0  0  0  0  0  0
  -14.4074  -19.7054   10.9163 F   0  0  0  0  0  0  0  0  0  0  0  0
  -13.6360  -19.1436    8.8413 F   0  0  0  0  0  0  0  0  0  0  0  0
  1  2  1  0
  1  9  1  0
  2  3  2  0
  2  4  1  0
  4  5  2  0
  4  8  1  0
  5  6  1  0
  6  7  1  0
  7  8  2  0
  9 10  2  0
  9 13  1  0
 10 11  1  0
 11 12  2  0
 12 13  1  0
 12 14  1  0
 14 15  1  0
 14 16  1  0
 14 17  1  0
M  END
>  <Gold.Gold.Protein.RotatedWaterAtoms>  (443) 


>  <Gold.Id.Protein>  (443) 


>  <Gold.PLP.Chemscore.CHOScore>  (443) 
0.8079

>  <Gold.PLP.Chemscore.Hbond>  (443) 
2.0070

>  <Gold.PLP.Chemscore.Internal.Correction>  (443) 
0.0002

>  <Gold.PLP.Chemscore.Metal>  (443) 
0.0000

>  <Gold.PLP.Fitness>  (443) 
36.5471

>  <Gold.PLP.PLP>  (443) 
-28.4517

>  <Gold.PLP.ligand.clash>  (443) 
0.0519

>  <Gold.PLP.ligand.torsion>  (443) 
0.1487

>  <Gold.PLP.part.buried>  (443) 
-3.8812

>  <Gold.PLP.part.hbond>  (443) 
-3.2420

>  <Gold.PLP.part.metal>  (443) 
0.0000

>  <Gold.PLP.part.nonpolar>  (443) 
-22.3479

>  <Gold.PLP.part.repulsive>  (443) 
0.4477

>  <Gold.Protein.RotatedAtoms>  (443) 


>  <Gold.Protein.RotatedTorsions>  (443) 


>  <Gold.Protein.RotatedWaterAtoms>  (443) 


>  <Gold.Version>  (443) 
5.3.0

>  <PLP.Chemscore.CHOScore>  (443) 


>  <PLP.Chemscore.Hbond>  (443) 


>  <PLP.Chemscore.Internal.Correction>  (443) 


>  <PLP.Chemscore.Metal>  (443) 


>  <PLP.Fitness>  (443) 


>  <PLP.PLP>  (443) 


>  <PLP.ligand.clash>  (443) 


>  <PLP.ligand.torsion>  (443) 


>  <PLP.part.buried>  (443) 


>  <PLP.part.hbond>  (443) 


>  <PLP.part.metal>  (443) 


>  <PLP.part.nonpolar>  (443) 


>  <PLP.part.repulsive>  (443) 


>  <Version>  (443) 


$$$$
3443|Compound_2116|Compounds_3D_F|sdf|616|dock9|1
     RDKit          3D

 17 18  0  0  0  0  0  0  0  0999 V2000
   -7.7542  -15.8783   11.1885 N   0  0  0  0  0  0  0  0  0  0  0  0
   -7.8587  -14.5812   11.5402 C   0  0  0  0  0  0  0  0  0  0  0  0
   -8.9436  -14.0340   11.5273 O   0  0  0  0  0  0  0  0  0  0  0  0
   -6.6533  -13.8252   11.9416 C   0  0  0  0  0  0  0  0  0  0  0  0
   -5.4391  -14.3139   12.0641 N   0  0  0  0  0  0  0  0  0  0  0  0
   -4.6466  -13.3651   12.4286 N   0  0  0  0  0  0  0  0  0  0  0  0
   -5.3629  -12.2326   12.5472 C   0  0  0  0  0  0  0  0  0  0  0  0
   -6.6038  -12.5144   12.2414 N   0  0  0  0  0  0  0  0  0  0  0  0
   -8.8861  -16.5882   10.8063 C   0  0  0  0  0  0  0  0  0  0  0  0
   -9.7446  -16.3591    9.8214 N   0  0  0  0  0  0  0  0  0  0  0  0
  -10.7318  -17.1146    9.6105 N   0  0  0  0  0  0  0  0  0  0  0  0
  -10.9741  -18.1776   10.3525 C   0  0  0  0  0  0  0  0  0  0  0  0
   -9.5991  -18.0792   11.4963 S   0  0  0  0  0  0  0  0  0  0  0  0
  -12.0870  -19.1893   10.2612 C   0  0  0  0  0  0  0  0  0  0  0  0
  -12.8019  -19.2062   11.4633 F   0  0  0  0  0  0  0  0  0  0  0  0
  -12.9455  -18.8435    9.2125 F   0  0  0  0  0  0  0  0  0  0  0  0
  -11.5465  -20.4573   10.0218 F   0  0  0  0  0  0  0  0  0  0  0  0
  1  2  1  0
  1  9  1  0
  2  3  2  0
  2  4  1  0
  4  5  2  0
  4  8  1  0
  5  6  1  0
  6  7  1  0
  7  8  2  0
  9 10  2  0
  9 13  1  0
 10 11  1  0
 11 12  2  0
 12 13  1  0
 12 14  1  0
 14 15  1  0
 14 16  1  0
 14 17  1  0
M  END
>  <Gold.Gold.Protein.RotatedWaterAtoms>  (444) 


>  <Gold.Id.Protein>  (444) 


>  <Gold.PLP.Chemscore.CHOScore>  (444) 
0.9957

>  <Gold.PLP.Chemscore.Hbond>  (444) 
1.3500

>  <Gold.PLP.Chemscore.Internal.Correction>  (444) 
0.0002

>  <Gold.PLP.Chemscore.Metal>  (444) 
0.0000

>  <Gold.PLP.Fitness>  (444) 
39.4614

>  <Gold.PLP.PLP>  (444) 
-33.5350

>  <Gold.PLP.ligand.clash>  (444) 
0.0000

>  <Gold.PLP.ligand.torsion>  (444) 
0.5555

>  <Gold.PLP.part.buried>  (444) 
-7.6138

>  <Gold.PLP.part.hbond>  (444) 
-4.3828

>  <Gold.PLP.part.metal>  (444) 
0.0000

>  <Gold.PLP.part.nonpolar>  (444) 
-23.1675

>  <Gold.PLP.part.repulsive>  (444) 
0.7716

>  <Gold.Protein.RotatedAtoms>  (444) 


>  <Gold.Protein.RotatedTorsions>  (444) 


>  <Gold.Protein.RotatedWaterAtoms>  (444) 


>  <Gold.Version>  (444) 
5.3.0

>  <PLP.Chemscore.CHOScore>  (444) 


>  <PLP.Chemscore.Hbond>  (444) 


>  <PLP.Chemscore.Internal.Correction>  (444) 


>  <PLP.Chemscore.Metal>  (444) 


>  <PLP.Fitness>  (444) 


>  <PLP.PLP>  (444) 


>  <PLP.ligand.clash>  (444) 


>  <PLP.ligand.torsion>  (444) 


>  <PLP.part.buried>  (444) 


>  <PLP.part.hbond>  (444) 


>  <PLP.part.metal>  (444) 


>  <PLP.part.nonpolar>  (444) 


>  <PLP.part.repulsive>  (444) 


>  <Version>  (444) 


$$$$
3444|Compound_2118|Compounds_3D_F|sdf|617|dock1|1
     RDKit          3D

 19 20  0  0  0  0  0  0  0  0999 V2000
   -6.7330  -18.5696    9.7321 O   0  0  0  0  0  0  0  0  0  0  0  0
   -7.1120  -17.5118   10.4754 C   0  0  0  0  0  0  0  0  0  0  0  0
   -6.3513  -16.5783   10.6351 O   0  0  0  0  0  0  0  0  0  0  0  0
   -8.4548  -17.4870   11.0953 C   0  0  0  0  0  0  0  0  0  0  0  0
   -9.2928  -18.5151   10.9428 N   0  0  0  0  0  0  0  0  0  0  0  0
  -10.4912  -18.4997   11.4934 C   0  0  0  0  0  0  0  0  0  0  0  0
  -11.3103  -19.5641   11.3120 O   0  0  0  0  0  0  0  0  0  0  0  0
  -10.9187  -17.4760   12.2186 N   0  0  0  0  0  0  0  0  0  0  0  0
  -10.1525  -16.4157   12.4202 C   0  0  0  0  0  0  0  0  0  0  0  0
  -10.6001  -15.3754   13.1636 O   0  0  0  0  0  0  0  0  0  0  0  0
   -8.8648  -16.3884   11.8578 C   0  0  0  0  0  0  0  0  0  0  0  0
   -8.0246  -15.2923   12.0453 N   0  0  0  0  0  0  0  0  0  0  0  0
   -8.3955  -14.0746   11.6016 C   0  0  0  0  0  0  0  0  0  0  0  0
   -9.4385  -13.9413   10.9914 O   0  0  0  0  0  0  0  0  0  0  0  0
   -7.5345  -12.9008   11.8578 C   0  0  0  0  0  0  0  0  0  0  0  0
   -7.8037  -11.6564   11.5284 N   0  0  0  0  0  0  0  0  0  0  0  0
   -6.8270  -10.9080   11.9081 N   0  0  0  0  0  0  0  0  0  0  0  0
   -5.8990  -11.6832   12.4994 C   0  0  0  0  0  0  0  0  0  0  0  0
   -6.3382  -12.9157   12.4740 N   0  0  0  0  0  0  0  0  0  0  0  0
  1  2  1  0
  2  3  2  0
  2  4  1  0
  4  5  2  0
  4 11  1  0
  5  6  1  0
  6  7  1  0
  6  8  2  0
  8  9  1  0
  9 10  1  0
  9 11  2  0
 11 12  1  0
 12 13  1  0
 13 14  2  0
 13 15  1  0
 15 16  2  0
 15 19  1  0
 16 17  1  0
 17 18  1  0
 18 19  2  0
M  END
>  <Gold.Gold.Protein.RotatedWaterAtoms>  (445) 


>  <Gold.Id.Protein>  (445) 


>  <Gold.PLP.Chemscore.CHOScore>  (445) 
1.0000

>  <Gold.PLP.Chemscore.Hbond>  (445) 
2.4590

>  <Gold.PLP.Chemscore.Internal.Correction>  (445) 
1.1642

>  <Gold.PLP.Chemscore.Metal>  (445) 
0.0000

>  <Gold.PLP.Fitness>  (445) 
43.8289

>  <Gold.PLP.PLP>  (445) 
-33.4936

>  <Gold.PLP.ligand.clash>  (445) 
0.0446

>  <Gold.PLP.ligand.torsion>  (445) 
0.5806

>  <Gold.PLP.part.buried>  (445) 
-5.7670

>  <Gold.PLP.part.hbond>  (445) 
-6.8229

>  <Gold.PLP.part.metal>  (445) 
0.0000

>  <Gold.PLP.part.nonpolar>  (445) 
-22.8507

>  <Gold.PLP.part.repulsive>  (445) 
1.5028

>  <Gold.Protein.RotatedAtoms>  (445) 


>  <Gold.Protein.RotatedTorsions>  (445) 


>  <Gold.Protein.RotatedWaterAtoms>  (445) 


>  <Gold.Version>  (445) 
5.3.0

>  <PLP.Chemscore.CHOScore>  (445) 


>  <PLP.Chemscore.Hbond>  (445) 


>  <PLP.Chemscore.Internal.Correction>  (445) 


>  <PLP.Chemscore.Metal>  (445) 


>  <PLP.Fitness>  (445) 


>  <PLP.PLP>  (445) 


>  <PLP.ligand.clash>  (445) 


>  <PLP.ligand.torsion>  (445) 


>  <PLP.part.buried>  (445) 


>  <PLP.part.hbond>  (445) 


>  <PLP.part.metal>  (445) 


>  <PLP.part.nonpolar>  (445) 


>  <PLP.part.repulsive>  (445) 


>  <Version>  (445) 


$$$$
3445|Compound_2118|Compounds_3D_F|sdf|617|dock2|1
     RDKit          3D

 19 20  0  0  0  0  0  0  0  0999 V2000
   -9.6491  -15.1320   12.4841 O   0  0  0  0  0  0  0  0  0  0  0  0
   -8.5114  -14.6937   11.9110 C   0  0  0  0  0  0  0  0  0  0  0  0
   -7.9040  -13.7630   12.4015 O   0  0  0  0  0  0  0  0  0  0  0  0
   -8.0016  -15.3468   10.6857 C   0  0  0  0  0  0  0  0  0  0  0  0
   -6.8764  -14.9213   10.1067 N   0  0  0  0  0  0  0  0  0  0  0  0
   -6.4159  -15.4996    9.0144 C   0  0  0  0  0  0  0  0  0  0  0  0
   -5.2706  -15.0346    8.4589 O   0  0  0  0  0  0  0  0  0  0  0  0
   -7.0384  -16.5212    8.4439 N   0  0  0  0  0  0  0  0  0  0  0  0
   -8.1602  -17.0064    8.9519 C   0  0  0  0  0  0  0  0  0  0  0  0
   -8.7875  -18.0512    8.3602 O   0  0  0  0  0  0  0  0  0  0  0  0
   -8.6870  -16.4262   10.1186 C   0  0  0  0  0  0  0  0  0  0  0  0
   -9.8655  -16.9058   10.6876 N   0  0  0  0  0  0  0  0  0  0  0  0
   -9.9309  -18.1765   11.1328 C   0  0  0  0  0  0  0  0  0  0  0  0
   -8.9800  -18.9205   10.9907 O   0  0  0  0  0  0  0  0  0  0  0  0
  -11.1586  -18.6654   11.7950 C   0  0  0  0  0  0  0  0  0  0  0  0
  -11.2733  -19.7749   12.4917 N   0  0  0  0  0  0  0  0  0  0  0  0
  -12.4855  -19.8734   12.9150 N   0  0  0  0  0  0  0  0  0  0  0  0
  -13.1774  -18.8024   12.4840 C   0  0  0  0  0  0  0  0  0  0  0  0
  -12.3560  -18.0513   11.7957 N   0  0  0  0  0  0  0  0  0  0  0  0
  1  2  1  0
  2  3  2  0
  2  4  1  0
  4  5  2  0
  4 11  1  0
  5  6  1  0
  6  7  1  0
  6  8  2  0
  8  9  1  0
  9 10  1  0
  9 11  2  0
 11 12  1  0
 12 13  1  0
 13 14  2  0
 13 15  1  0
 15 16  2  0
 15 19  1  0
 16 17  1  0
 17 18  1  0
 18 19  2  0
M  END
>  <Gold.Gold.Protein.RotatedWaterAtoms>  (446) 


>  <Gold.Id.Protein>  (446) 


>  <Gold.PLP.Chemscore.CHOScore>  (446) 
1.0000

>  <Gold.PLP.Chemscore.Hbond>  (446) 
3.3884

>  <Gold.PLP.Chemscore.Internal.Correction>  (446) 
1.1572

>  <Gold.PLP.Chemscore.Metal>  (446) 
0.0000

>  <Gold.PLP.Fitness>  (446) 
42.5326

>  <Gold.PLP.PLP>  (446) 
-29.5266

>  <Gold.PLP.ligand.clash>  (446) 
0.0000

>  <Gold.PLP.ligand.torsion>  (446) 
0.6581

>  <Gold.PLP.part.buried>  (446) 
-8.1623

>  <Gold.PLP.part.hbond>  (446) 
-7.1862

>  <Gold.PLP.part.metal>  (446) 
0.0000

>  <Gold.PLP.part.nonpolar>  (446) 
-16.4545

>  <Gold.PLP.part.repulsive>  (446) 
0.4400

>  <Gold.Protein.RotatedAtoms>  (446) 


>  <Gold.Protein.RotatedTorsions>  (446) 


>  <Gold.Protein.RotatedWaterAtoms>  (446) 


>  <Gold.Version>  (446) 
5.3.0

>  <PLP.Chemscore.CHOScore>  (446) 


>  <PLP.Chemscore.Hbond>  (446) 


>  <PLP.Chemscore.Internal.Correction>  (446) 


>  <PLP.Chemscore.Metal>  (446) 


>  <PLP.Fitness>  (446) 


>  <PLP.PLP>  (446) 


>  <PLP.ligand.clash>  (446) 


>  <PLP.ligand.torsion>  (446) 


>  <PLP.part.buried>  (446) 


>  <PLP.part.hbond>  (446) 


>  <PLP.part.metal>  (446) 


>  <PLP.part.nonpolar>  (446) 


>  <PLP.part.repulsive>  (446) 


>  <Version>  (446) 


$$$$
3446|Compound_2118|Compounds_3D_F|sdf|617|dock3|1
     RDKit          3D

 19 20  0  0  0  0  0  0  0  0999 V2000
   -9.5006  -15.2637   12.4060 O   0  0  0  0  0  0  0  0  0  0  0  0
   -8.4218  -14.7670   11.7700 C   0  0  0  0  0  0  0  0  0  0  0  0
   -7.8354  -13.8070   12.2285 O   0  0  0  0  0  0  0  0  0  0  0  0
   -7.9510  -15.3919   10.5147 C   0  0  0  0  0  0  0  0  0  0  0  0
   -6.8530  -14.9429    9.9023 N   0  0  0  0  0  0  0  0  0  0  0  0
   -6.4273  -15.4960    8.7832 C   0  0  0  0  0  0  0  0  0  0  0  0
   -5.3086  -15.0077    8.1941 O   0  0  0  0  0  0  0  0  0  0  0  0
   -7.0595  -16.5141    8.2172 N   0  0  0  0  0  0  0  0  0  0  0  0
   -8.1562  -17.0214    8.7574 C   0  0  0  0  0  0  0  0  0  0  0  0
   -8.7937  -18.0625    8.1702 O   0  0  0  0  0  0  0  0  0  0  0  0
   -8.6453  -16.4686    9.9534 C   0  0  0  0  0  0  0  0  0  0  0  0
   -9.7965  -16.9721   10.5569 N   0  0  0  0  0  0  0  0  0  0  0  0
   -9.8265  -18.2472   10.9933 C   0  0  0  0  0  0  0  0  0  0  0  0
   -8.8688  -18.9742   10.8138 O   0  0  0  0  0  0  0  0  0  0  0  0
  -11.0235  -18.7614   11.6914 C   0  0  0  0  0  0  0  0  0  0  0  0
  -11.0767  -19.8351   12.4489 N   0  0  0  0  0  0  0  0  0  0  0  0
  -12.2798  -19.9726   12.8868 N   0  0  0  0  0  0  0  0  0  0  0  0
  -13.0288  -18.9642   12.4032 C   0  0  0  0  0  0  0  0  0  0  0  0
  -12.2513  -18.2110   11.6680 N   0  0  0  0  0  0  0  0  0  0  0  0
  1  2  1  0
  2  3  2  0
  2  4  1  0
  4  5  2  0
  4 11  1  0
  5  6  1  0
  6  7  1  0
  6  8  2  0
  8  9  1  0
  9 10  1  0
  9 11  2  0
 11 12  1  0
 12 13  1  0
 13 14  2  0
 13 15  1  0
 15 16  2  0
 15 19  1  0
 16 17  1  0
 17 18  1  0
 18 19  2  0
M  END
>  <Gold.Gold.Protein.RotatedWaterAtoms>  (447) 


>  <Gold.Id.Protein>  (447) 


>  <Gold.PLP.Chemscore.CHOScore>  (447) 
1.0000

>  <Gold.PLP.Chemscore.Hbond>  (447) 
3.0875

>  <Gold.PLP.Chemscore.Internal.Correction>  (447) 
1.1572

>  <Gold.PLP.Chemscore.Metal>  (447) 
0.0000

>  <Gold.PLP.Fitness>  (447) 
41.7166

>  <Gold.PLP.PLP>  (447) 
-29.7542

>  <Gold.PLP.ligand.clash>  (447) 
0.0000

>  <Gold.PLP.ligand.torsion>  (447) 
0.7285

>  <Gold.PLP.part.buried>  (447) 
-8.0910

>  <Gold.PLP.part.hbond>  (447) 
-7.1182

>  <Gold.PLP.part.metal>  (447) 
0.0000

>  <Gold.PLP.part.nonpolar>  (447) 
-15.9435

>  <Gold.PLP.part.repulsive>  (447) 
0.4389

>  <Gold.Protein.RotatedAtoms>  (447) 


>  <Gold.Protein.RotatedTorsions>  (447) 


>  <Gold.Protein.RotatedWaterAtoms>  (447) 


>  <Gold.Version>  (447) 
5.3.0

>  <PLP.Chemscore.CHOScore>  (447) 


>  <PLP.Chemscore.Hbond>  (447) 


>  <PLP.Chemscore.Internal.Correction>  (447) 


>  <PLP.Chemscore.Metal>  (447) 


>  <PLP.Fitness>  (447) 


>  <PLP.PLP>  (447) 


>  <PLP.ligand.clash>  (447) 


>  <PLP.ligand.torsion>  (447) 


>  <PLP.part.buried>  (447) 


>  <PLP.part.hbond>  (447) 


>  <PLP.part.metal>  (447) 


>  <PLP.part.nonpolar>  (447) 


>  <PLP.part.repulsive>  (447) 


>  <Version>  (447) 


$$$$
3447|Compound_2118|Compounds_3D_F|sdf|617|dock4|1
     RDKit          3D

 19 20  0  0  0  0  0  0  0  0999 V2000
   -8.7431  -19.9931    8.6968 O   0  0  0  0  0  0  0  0  0  0  0  0
   -8.0559  -18.9871    8.1218 C   0  0  0  0  0  0  0  0  0  0  0  0
   -7.8990  -18.9697    6.9173 O   0  0  0  0  0  0  0  0  0  0  0  0
   -7.4940  -17.9035    8.9572 C   0  0  0  0  0  0  0  0  0  0  0  0
   -6.6110  -17.0412    8.4481 N   0  0  0  0  0  0  0  0  0  0  0  0
   -6.1067  -16.0723    9.1873 C   0  0  0  0  0  0  0  0  0  0  0  0
   -5.2121  -15.2200    8.6304 O   0  0  0  0  0  0  0  0  0  0  0  0
   -6.4477  -15.9065   10.4572 N   0  0  0  0  0  0  0  0  0  0  0  0
   -7.3164  -16.7163   11.0416 C   0  0  0  0  0  0  0  0  0  0  0  0
   -7.6578  -16.5368   12.3402 O   0  0  0  0  0  0  0  0  0  0  0  0
   -7.8851  -17.7607   10.2925 C   0  0  0  0  0  0  0  0  0  0  0  0
   -8.8044  -18.6363   10.8678 N   0  0  0  0  0  0  0  0  0  0  0  0
   -9.9759  -18.1680   11.3426 C   0  0  0  0  0  0  0  0  0  0  0  0
  -10.2092  -16.9751   11.3172 O   0  0  0  0  0  0  0  0  0  0  0  0
  -10.9777  -19.1049   11.8932 C   0  0  0  0  0  0  0  0  0  0  0  0
  -10.8990  -20.4176   11.8817 N   0  0  0  0  0  0  0  0  0  0  0  0
  -11.9507  -20.8996   12.4471 N   0  0  0  0  0  0  0  0  0  0  0  0
  -12.7338  -19.8764   12.8367 C   0  0  0  0  0  0  0  0  0  0  0  0
  -12.1301  -18.7653   12.4996 N   0  0  0  0  0  0  0  0  0  0  0  0
  1  2  1  0
  2  3  2  0
  2  4  1  0
  4  5  2  0
  4 11  1  0
  5  6  1  0
  6  7  1  0
  6  8  2  0
  8  9  1  0
  9 10  1  0
  9 11  2  0
 11 12  1  0
 12 13  1  0
 13 14  2  0
 13 15  1  0
 15 16  2  0
 15 19  1  0
 16 17  1  0
 17 18  1  0
 18 19  2  0
M  END
>  <Gold.Gold.Protein.RotatedWaterAtoms>  (448) 


>  <Gold.Id.Protein>  (448) 


>  <Gold.PLP.Chemscore.CHOScore>  (448) 
0.7801

>  <Gold.PLP.Chemscore.Hbond>  (448) 
4.1577

>  <Gold.PLP.Chemscore.Internal.Correction>  (448) 
1.1572

>  <Gold.PLP.Chemscore.Metal>  (448) 
0.0000

>  <Gold.PLP.Fitness>  (448) 
37.0242

>  <Gold.PLP.PLP>  (448) 
-22.3862

>  <Gold.PLP.ligand.clash>  (448) 
0.0000

>  <Gold.PLP.ligand.torsion>  (448) 
0.6663

>  <Gold.PLP.part.buried>  (448) 
-5.9592

>  <Gold.PLP.part.hbond>  (448) 
-4.7215

>  <Gold.PLP.part.metal>  (448) 
0.0000

>  <Gold.PLP.part.nonpolar>  (448) 
-12.7316

>  <Gold.PLP.part.repulsive>  (448) 
0.2324

>  <Gold.Protein.RotatedAtoms>  (448) 


>  <Gold.Protein.RotatedTorsions>  (448) 


>  <Gold.Protein.RotatedWaterAtoms>  (448) 


>  <Gold.Version>  (448) 
5.3.0

>  <PLP.Chemscore.CHOScore>  (448) 


>  <PLP.Chemscore.Hbond>  (448) 


>  <PLP.Chemscore.Internal.Correction>  (448) 


>  <PLP.Chemscore.Metal>  (448) 


>  <PLP.Fitness>  (448) 


>  <PLP.PLP>  (448) 


>  <PLP.ligand.clash>  (448) 


>  <PLP.ligand.torsion>  (448) 


>  <PLP.part.buried>  (448) 


>  <PLP.part.hbond>  (448) 


>  <PLP.part.metal>  (448) 


>  <PLP.part.nonpolar>  (448) 


>  <PLP.part.repulsive>  (448) 


>  <Version>  (448) 


$$$$
3448|Compound_2118|Compounds_3D_F|sdf|617|dock5|1
     RDKit          3D

 19 20  0  0  0  0  0  0  0  0999 V2000
   -9.6966  -15.6575   12.4639 O   0  0  0  0  0  0  0  0  0  0  0  0
   -8.6735  -15.0396   11.8424 C   0  0  0  0  0  0  0  0  0  0  0  0
   -8.2465  -13.9878   12.2751 O   0  0  0  0  0  0  0  0  0  0  0  0
   -8.0696  -15.6428   10.6343 C   0  0  0  0  0  0  0  0  0  0  0  0
   -6.9319  -15.1596   10.1297 N   0  0  0  0  0  0  0  0  0  0  0  0
   -6.3878  -15.6932    9.0533 C   0  0  0  0  0  0  0  0  0  0  0  0
   -5.2329  -15.1704    8.5740 O   0  0  0  0  0  0  0  0  0  0  0  0
   -6.9352  -16.7247    8.4263 N   0  0  0  0  0  0  0  0  0  0  0  0
   -8.0631  -17.2655    8.8589 C   0  0  0  0  0  0  0  0  0  0  0  0
   -8.6132  -18.3199    8.2101 O   0  0  0  0  0  0  0  0  0  0  0  0
   -8.6776  -16.7345   10.0059 C   0  0  0  0  0  0  0  0  0  0  0  0
   -9.8657  -17.2735   10.4964 N   0  0  0  0  0  0  0  0  0  0  0  0
   -9.8781  -18.5176   11.0153 C   0  0  0  0  0  0  0  0  0  0  0  0
   -8.8652  -19.1899   11.0079 O   0  0  0  0  0  0  0  0  0  0  0  0
  -11.1232  -19.0644   11.5945 C   0  0  0  0  0  0  0  0  0  0  0  0
  -11.5467  -20.3050   11.4890 N   0  0  0  0  0  0  0  0  0  0  0  0
  -12.6653  -20.4146   12.1175 N   0  0  0  0  0  0  0  0  0  0  0  0
  -12.9782  -19.2167   12.6456 C   0  0  0  0  0  0  0  0  0  0  0  0
  -12.0220  -18.3819   12.3274 N   0  0  0  0  0  0  0  0  0  0  0  0
  1  2  1  0
  2  3  2  0
  2  4  1  0
  4  5  2  0
  4 11  1  0
  5  6  1  0
  6  7  1  0
  6  8  2  0
  8  9  1  0
  9 10  1  0
  9 11  2  0
 11 12  1  0
 12 13  1  0
 13 14  2  0
 13 15  1  0
 15 16  2  0
 15 19  1  0
 16 17  1  0
 17 18  1  0
 18 19  2  0
M  END
>  <Gold.Gold.Protein.RotatedWaterAtoms>  (449) 


>  <Gold.Id.Protein>  (449) 


>  <Gold.PLP.Chemscore.CHOScore>  (449) 
1.0000

>  <Gold.PLP.Chemscore.Hbond>  (449) 
5.0381

>  <Gold.PLP.Chemscore.Internal.Correction>  (449) 
1.1572

>  <Gold.PLP.Chemscore.Metal>  (449) 
0.0000

>  <Gold.PLP.Fitness>  (449) 
43.7304

>  <Gold.PLP.PLP>  (449) 
-26.9952

>  <Gold.PLP.ligand.clash>  (449) 
0.0000

>  <Gold.PLP.ligand.torsion>  (449) 
1.2681

>  <Gold.PLP.part.buried>  (449) 
-7.7789

>  <Gold.PLP.part.hbond>  (449) 
-7.0000

>  <Gold.PLP.part.metal>  (449) 
0.0000

>  <Gold.PLP.part.nonpolar>  (449) 
-14.6992

>  <Gold.PLP.part.repulsive>  (449) 
0.3642

>  <Gold.Protein.RotatedAtoms>  (449) 


>  <Gold.Protein.RotatedTorsions>  (449) 


>  <Gold.Protein.RotatedWaterAtoms>  (449) 


>  <Gold.Version>  (449) 
5.3.0

>  <PLP.Chemscore.CHOScore>  (449) 


>  <PLP.Chemscore.Hbond>  (449) 


>  <PLP.Chemscore.Internal.Correction>  (449) 


>  <PLP.Chemscore.Metal>  (449) 


>  <PLP.Fitness>  (449) 


>  <PLP.PLP>  (449) 


>  <PLP.ligand.clash>  (449) 


>  <PLP.ligand.torsion>  (449) 


>  <PLP.part.buried>  (449) 


>  <PLP.part.hbond>  (449) 


>  <PLP.part.metal>  (449) 


>  <PLP.part.nonpolar>  (449) 


>  <PLP.part.repulsive>  (449) 


>  <Version>  (449) 


$$$$
3449|Compound_2118|Compounds_3D_F|sdf|617|dock6|1
     RDKit          3D

 19 20  0  0  0  0  0  0  0  0999 V2000
   -5.6138  -19.7045   10.0747 O   0  0  0  0  0  0  0  0  0  0  0  0
   -6.8779  -19.2443   10.0015 C   0  0  0  0  0  0  0  0  0  0  0  0
   -7.7976  -19.9296   10.4017 O   0  0  0  0  0  0  0  0  0  0  0  0
   -7.1451  -17.9042    9.4352 C   0  0  0  0  0  0  0  0  0  0  0  0
   -6.1413  -17.1338    9.0098 N   0  0  0  0  0  0  0  0  0  0  0  0
   -6.3726  -15.9381    8.5032 C   0  0  0  0  0  0  0  0  0  0  0  0
   -5.3238  -15.1887    8.0847 O   0  0  0  0  0  0  0  0  0  0  0  0
   -7.5986  -15.4474    8.3907 N   0  0  0  0  0  0  0  0  0  0  0  0
   -8.6514  -16.1443    8.7880 C   0  0  0  0  0  0  0  0  0  0  0  0
   -9.9000  -15.6325    8.6677 O   0  0  0  0  0  0  0  0  0  0  0  0
   -8.4554  -17.4262    9.3296 C   0  0  0  0  0  0  0  0  0  0  0  0
   -9.5356  -18.1947    9.7600 N   0  0  0  0  0  0  0  0  0  0  0  0
  -10.1698  -17.8834   10.9081 C   0  0  0  0  0  0  0  0  0  0  0  0
   -9.7674  -16.9649   11.5955 O   0  0  0  0  0  0  0  0  0  0  0  0
  -11.3553  -18.6581   11.3311 C   0  0  0  0  0  0  0  0  0  0  0  0
  -11.9400  -19.6155   10.6448 N   0  0  0  0  0  0  0  0  0  0  0  0
  -12.9397  -20.0596   11.3243 N   0  0  0  0  0  0  0  0  0  0  0  0
  -13.0081  -19.3753   12.4813 C   0  0  0  0  0  0  0  0  0  0  0  0
  -12.0249  -18.5117   12.4892 N   0  0  0  0  0  0  0  0  0  0  0  0
  1  2  1  0
  2  3  2  0
  2  4  1  0
  4  5  2  0
  4 11  1  0
  5  6  1  0
  6  7  1  0
  6  8  2  0
  8  9  1  0
  9 10  1  0
  9 11  2  0
 11 12  1  0
 12 13  1  0
 13 14  2  0
 13 15  1  0
 15 16  2  0
 15 19  1  0
 16 17  1  0
 17 18  1  0
 18 19  2  0
M  END
>  <Gold.Gold.Protein.RotatedWaterAtoms>  (450) 


>  <Gold.Id.Protein>  (450) 


>  <Gold.PLP.Chemscore.CHOScore>  (450) 
1.0000

>  <Gold.PLP.Chemscore.Hbond>  (450) 
3.7520

>  <Gold.PLP.Chemscore.Internal.Correction>  (450) 
1.1562

>  <Gold.PLP.Chemscore.Metal>  (450) 
0.0000

>  <Gold.PLP.Fitness>  (450) 
37.3981

>  <Gold.PLP.PLP>  (450) 
-23.3970

>  <Gold.PLP.ligand.clash>  (450) 
0.0000

>  <Gold.PLP.ligand.torsion>  (450) 
0.7056

>  <Gold.PLP.part.buried>  (450) 
-4.7845

>  <Gold.PLP.part.hbond>  (450) 
-6.4935

>  <Gold.PLP.part.metal>  (450) 
0.0000

>  <Gold.PLP.part.nonpolar>  (450) 
-12.4646

>  <Gold.PLP.part.repulsive>  (450) 
0.3509

>  <Gold.Protein.RotatedAtoms>  (450) 


>  <Gold.Protein.RotatedTorsions>  (450) 


>  <Gold.Protein.RotatedWaterAtoms>  (450) 


>  <Gold.Version>  (450) 
5.3.0

>  <PLP.Chemscore.CHOScore>  (450) 


>  <PLP.Chemscore.Hbond>  (450) 


>  <PLP.Chemscore.Internal.Correction>  (450) 


>  <PLP.Chemscore.Metal>  (450) 


>  <PLP.Fitness>  (450) 


>  <PLP.PLP>  (450) 


>  <PLP.ligand.clash>  (450) 


>  <PLP.ligand.torsion>  (450) 


>  <PLP.part.buried>  (450) 


>  <PLP.part.hbond>  (450) 


>  <PLP.part.metal>  (450) 


>  <PLP.part.nonpolar>  (450) 


>  <PLP.part.repulsive>  (450) 


>  <Version>  (450) 


$$$$
3450|Compound_2118|Compounds_3D_F|sdf|617|dock7|1
     RDKit          3D

 19 20  0  0  0  0  0  0  0  0999 V2000
   -7.9523  -14.0957   12.4987 O   0  0  0  0  0  0  0  0  0  0  0  0
   -8.6289  -15.0382   11.8141 C   0  0  0  0  0  0  0  0  0  0  0  0
   -9.7216  -15.4021   12.2003 O   0  0  0  0  0  0  0  0  0  0  0  0
   -8.0415  -15.6284   10.5915 C   0  0  0  0  0  0  0  0  0  0  0  0
   -6.8928  -15.1622   10.0962 N   0  0  0  0  0  0  0  0  0  0  0  0
   -6.3632  -15.6844    9.0069 C   0  0  0  0  0  0  0  0  0  0  0  0
   -5.1963  -15.1796    8.5378 O   0  0  0  0  0  0  0  0  0  0  0  0
   -6.9369  -16.6873    8.3574 N   0  0  0  0  0  0  0  0  0  0  0  0
   -8.0774  -17.2098    8.7795 C   0  0  0  0  0  0  0  0  0  0  0  0
   -8.6542  -18.2350    8.1077 O   0  0  0  0  0  0  0  0  0  0  0  0
   -8.6772  -16.6900    9.9394 C   0  0  0  0  0  0  0  0  0  0  0  0
   -9.8778  -17.2105   10.4194 N   0  0  0  0  0  0  0  0  0  0  0  0
   -9.9133  -18.4528   10.9416 C   0  0  0  0  0  0  0  0  0  0  0  0
   -8.9102  -19.1395   10.9462 O   0  0  0  0  0  0  0  0  0  0  0  0
  -11.1719  -18.9799   11.5098 C   0  0  0  0  0  0  0  0  0  0  0  0
  -11.6450  -20.1962   11.3476 N   0  0  0  0  0  0  0  0  0  0  0  0
  -12.7594  -20.2944   11.9855 N   0  0  0  0  0  0  0  0  0  0  0  0
  -13.0187  -19.1139   12.5777 C   0  0  0  0  0  0  0  0  0  0  0  0
  -12.0343  -18.3014   12.2888 N   0  0  0  0  0  0  0  0  0  0  0  0
  1  2  1  0
  2  3  2  0
  2  4  1  0
  4  5  2  0
  4 11  1  0
  5  6  1  0
  6  7  1  0
  6  8  2  0
  8  9  1  0
  9 10  1  0
  9 11  2  0
 11 12  1  0
 12 13  1  0
 13 14  2  0
 13 15  1  0
 15 16  2  0
 15 19  1  0
 16 17  1  0
 17 18  1  0
 18 19  2  0
M  END
>  <Gold.Gold.Protein.RotatedWaterAtoms>  (451) 


>  <Gold.Id.Protein>  (451) 


>  <Gold.PLP.Chemscore.CHOScore>  (451) 
1.0000

>  <Gold.PLP.Chemscore.Hbond>  (451) 
3.6531

>  <Gold.PLP.Chemscore.Internal.Correction>  (451) 
1.1562

>  <Gold.PLP.Chemscore.Metal>  (451) 
0.0000

>  <Gold.PLP.Fitness>  (451) 
39.0236

>  <Gold.PLP.PLP>  (451) 
-26.5931

>  <Gold.PLP.ligand.clash>  (451) 
0.0000

>  <Gold.PLP.ligand.torsion>  (451) 
1.3426

>  <Gold.PLP.part.buried>  (451) 
-7.8540

>  <Gold.PLP.part.hbond>  (451) 
-5.7822

>  <Gold.PLP.part.metal>  (451) 
0.0000

>  <Gold.PLP.part.nonpolar>  (451) 
-14.7120

>  <Gold.PLP.part.repulsive>  (451) 
0.3681

>  <Gold.Protein.RotatedAtoms>  (451) 


>  <Gold.Protein.RotatedTorsions>  (451) 


>  <Gold.Protein.RotatedWaterAtoms>  (451) 


>  <Gold.Version>  (451) 
5.3.0

>  <PLP.Chemscore.CHOScore>  (451) 


>  <PLP.Chemscore.Hbond>  (451) 


>  <PLP.Chemscore.Internal.Correction>  (451) 


>  <PLP.Chemscore.Metal>  (451) 


>  <PLP.Fitness>  (451) 


>  <PLP.PLP>  (451) 


>  <PLP.ligand.clash>  (451) 


>  <PLP.ligand.torsion>  (451) 


>  <PLP.part.buried>  (451) 


>  <PLP.part.hbond>  (451) 


>  <PLP.part.metal>  (451) 


>  <PLP.part.nonpolar>  (451) 


>  <PLP.part.repulsive>  (451) 


>  <Version>  (451) 


$$$$
3451|Compound_2118|Compounds_3D_F|sdf|617|dock8|1
     RDKit          3D

 19 20  0  0  0  0  0  0  0  0999 V2000
   -9.5561  -15.3014   12.3973 O   0  0  0  0  0  0  0  0  0  0  0  0
   -8.3589  -14.9574   11.8841 C   0  0  0  0  0  0  0  0  0  0  0  0
   -7.6296  -14.2036   12.4969 O   0  0  0  0  0  0  0  0  0  0  0  0
   -7.9324  -15.4989   10.5753 C   0  0  0  0  0  0  0  0  0  0  0  0
   -6.8476  -15.0196    9.9624 N   0  0  0  0  0  0  0  0  0  0  0  0
   -6.4614  -15.4984    8.7957 C   0  0  0  0  0  0  0  0  0  0  0  0
   -5.3548  -14.9817    8.2082 O   0  0  0  0  0  0  0  0  0  0  0  0
   -7.1219  -16.4690    8.1806 N   0  0  0  0  0  0  0  0  0  0  0  0
   -8.2082  -17.0015    8.7174 C   0  0  0  0  0  0  0  0  0  0  0  0
   -8.8749  -17.9934    8.0796 O   0  0  0  0  0  0  0  0  0  0  0  0
   -8.6555  -16.5276    9.9627 C   0  0  0  0  0  0  0  0  0  0  0  0
   -9.7944  -17.0602   10.5644 N   0  0  0  0  0  0  0  0  0  0  0  0
   -9.7743  -18.3167   11.0522 C   0  0  0  0  0  0  0  0  0  0  0  0
   -8.7804  -19.0044   10.9208 O   0  0  0  0  0  0  0  0  0  0  0  0
  -10.9605  -18.8584   11.7481 C   0  0  0  0  0  0  0  0  0  0  0  0
  -11.0160  -19.9882   12.4189 N   0  0  0  0  0  0  0  0  0  0  0  0
  -12.2072  -20.1334   12.8859 N   0  0  0  0  0  0  0  0  0  0  0  0
  -12.9459  -19.0726   12.5106 C   0  0  0  0  0  0  0  0  0  0  0  0
  -12.1741  -18.2802   11.8114 N   0  0  0  0  0  0  0  0  0  0  0  0
  1  2  1  0
  2  3  2  0
  2  4  1  0
  4  5  2  0
  4 11  1  0
  5  6  1  0
  6  7  1  0
  6  8  2  0
  8  9  1  0
  9 10  1  0
  9 11  2  0
 11 12  1  0
 12 13  1  0
 13 14  2  0
 13 15  1  0
 15 16  2  0
 15 19  1  0
 16 17  1  0
 17 18  1  0
 18 19  2  0
M  END
>  <Gold.Gold.Protein.RotatedWaterAtoms>  (452) 


>  <Gold.Id.Protein>  (452) 


>  <Gold.PLP.Chemscore.CHOScore>  (452) 
1.0000

>  <Gold.PLP.Chemscore.Hbond>  (452) 
3.2552

>  <Gold.PLP.Chemscore.Internal.Correction>  (452) 
1.1562

>  <Gold.PLP.Chemscore.Metal>  (452) 
0.0000

>  <Gold.PLP.Fitness>  (452) 
41.0028

>  <Gold.PLP.PLP>  (452) 
-28.5711

>  <Gold.PLP.ligand.clash>  (452) 
0.0000

>  <Gold.PLP.ligand.torsion>  (452) 
0.7450

>  <Gold.PLP.part.buried>  (452) 
-7.2907

>  <Gold.PLP.part.hbond>  (452) 
-6.5333

>  <Gold.PLP.part.metal>  (452) 
0.0000

>  <Gold.PLP.part.nonpolar>  (452) 
-15.7284

>  <Gold.PLP.part.repulsive>  (452) 
0.4385

>  <Gold.Protein.RotatedAtoms>  (452) 


>  <Gold.Protein.RotatedTorsions>  (452) 


>  <Gold.Protein.RotatedWaterAtoms>  (452) 


>  <Gold.Version>  (452) 
5.3.0

>  <PLP.Chemscore.CHOScore>  (452) 


>  <PLP.Chemscore.Hbond>  (452) 


>  <PLP.Chemscore.Internal.Correction>  (452) 


>  <PLP.Chemscore.Metal>  (452) 


>  <PLP.Fitness>  (452) 


>  <PLP.PLP>  (452) 


>  <PLP.ligand.clash>  (452) 


>  <PLP.ligand.torsion>  (452) 


>  <PLP.part.buried>  (452) 


>  <PLP.part.hbond>  (452) 


>  <PLP.part.metal>  (452) 


>  <PLP.part.nonpolar>  (452) 


>  <PLP.part.repulsive>  (452) 


>  <Version>  (452) 


$$$$
3452|Compound_2118|Compounds_3D_F|sdf|617|dock9|1
     RDKit          3D

 19 20  0  0  0  0  0  0  0  0999 V2000
   -6.5934  -18.6671   10.1195 O   0  0  0  0  0  0  0  0  0  0  0  0
   -7.1449  -17.4856   10.4582 C   0  0  0  0  0  0  0  0  0  0  0  0
   -6.5426  -16.4518   10.2475 O   0  0  0  0  0  0  0  0  0  0  0  0
   -8.4841  -17.4475   11.0851 C   0  0  0  0  0  0  0  0  0  0  0  0
   -9.3365  -18.4630   10.9292 N   0  0  0  0  0  0  0  0  0  0  0  0
  -10.5319  -18.4358   11.4860 C   0  0  0  0  0  0  0  0  0  0  0  0
  -11.3661  -19.4877   11.3007 O   0  0  0  0  0  0  0  0  0  0  0  0
  -10.9420  -17.4120   12.2210 N   0  0  0  0  0  0  0  0  0  0  0  0
  -10.1606  -16.3636   12.4267 C   0  0  0  0  0  0  0  0  0  0  0  0
  -10.5904  -15.3231   13.1802 O   0  0  0  0  0  0  0  0  0  0  0  0
   -8.8755  -16.3494   11.8580 C   0  0  0  0  0  0  0  0  0  0  0  0
   -8.0196  -15.2660   12.0495 N   0  0  0  0  0  0  0  0  0  0  0  0
   -8.3748  -14.0408   11.6137 C   0  0  0  0  0  0  0  0  0  0  0  0
   -9.4175  -13.8896   11.0070 O   0  0  0  0  0  0  0  0  0  0  0  0
   -7.4971  -12.8805   11.8743 C   0  0  0  0  0  0  0  0  0  0  0  0
   -7.7722  -11.6242   11.5996 N   0  0  0  0  0  0  0  0  0  0  0  0
   -6.7762  -10.8939   11.9640 N   0  0  0  0  0  0  0  0  0  0  0  0
   -5.8291  -11.6934   12.4889 C   0  0  0  0  0  0  0  0  0  0  0  0
   -6.2763  -12.9222   12.4392 N   0  0  0  0  0  0  0  0  0  0  0  0
  1  2  1  0
  2  3  2  0
  2  4  1  0
  4  5  2  0
  4 11  1  0
  5  6  1  0
  6  7  1  0
  6  8  2  0
  8  9  1  0
  9 10  1  0
  9 11  2  0
 11 12  1  0
 12 13  1  0
 13 14  2  0
 13 15  1  0
 15 16  2  0
 15 19  1  0
 16 17  1  0
 17 18  1  0
 18 19  2  0
M  END
>  <Gold.Gold.Protein.RotatedWaterAtoms>  (453) 


>  <Gold.Id.Protein>  (453) 


>  <Gold.PLP.Chemscore.CHOScore>  (453) 
1.0000

>  <Gold.PLP.Chemscore.Hbond>  (453) 
2.5070

>  <Gold.PLP.Chemscore.Internal.Correction>  (453) 
1.1562

>  <Gold.PLP.Chemscore.Metal>  (453) 
0.0000

>  <Gold.PLP.Fitness>  (453) 
43.7210

>  <Gold.PLP.PLP>  (453) 
-33.6722

>  <Gold.PLP.ligand.clash>  (453) 
0.0000

>  <Gold.PLP.ligand.torsion>  (453) 
0.8142

>  <Gold.PLP.part.buried>  (453) 
-5.7862

>  <Gold.PLP.part.hbond>  (453) 
-6.5993

>  <Gold.PLP.part.metal>  (453) 
0.0000

>  <Gold.PLP.part.nonpolar>  (453) 
-23.0194

>  <Gold.PLP.part.repulsive>  (453) 
1.4800

>  <Gold.Protein.RotatedAtoms>  (453) 


>  <Gold.Protein.RotatedTorsions>  (453) 


>  <Gold.Protein.RotatedWaterAtoms>  (453) 


>  <Gold.Version>  (453) 
5.3.0

>  <PLP.Chemscore.CHOScore>  (453) 


>  <PLP.Chemscore.Hbond>  (453) 


>  <PLP.Chemscore.Internal.Correction>  (453) 


>  <PLP.Chemscore.Metal>  (453) 


>  <PLP.Fitness>  (453) 


>  <PLP.PLP>  (453) 


>  <PLP.ligand.clash>  (453) 


>  <PLP.ligand.torsion>  (453) 


>  <PLP.part.buried>  (453) 


>  <PLP.part.hbond>  (453) 


>  <PLP.part.metal>  (453) 


>  <PLP.part.nonpolar>  (453) 


>  <PLP.part.repulsive>  (453) 


>  <Version>  (453) 


$$$$
3453|Compound_2123|Compounds_3D_F|sdf|618|dock1|1
     RDKit          3D

 18 20  0  0  0  0  0  0  0  0999 V2000
  -13.9493  -20.5477   14.3194 O   0  0  0  0  0  0  0  0  0  0  0  0
  -13.2398  -20.7633   13.1870 C   0  0  0  0  0  0  0  0  0  0  0  0
  -13.6102  -21.7852   12.2911 C   0  0  0  0  0  0  0  0  0  0  0  0
  -14.5937  -22.7016   12.2716 N   0  0  0  0  0  0  0  0  0  0  0  0
  -14.5026  -23.4266   11.2123 N   0  0  0  0  0  0  0  0  0  0  0  0
  -13.4039  -23.0018   10.4508 N   0  0  0  0  0  0  0  0  0  0  0  0
  -12.8352  -21.9610   11.1306 C   0  0  0  0  0  0  0  0  0  0  0  0
  -11.7915  -21.1658   10.9202 N   0  0  0  0  0  0  0  0  0  0  0  0
  -11.4811  -20.2192   11.7891 C   0  0  0  0  0  0  0  0  0  0  0  0
  -12.1866  -20.0139   12.8944 N   0  0  0  0  0  0  0  0  0  0  0  0
  -10.3831  -19.4086   11.5357 N   0  0  0  0  0  0  0  0  0  0  0  0
  -10.4164  -18.1041   11.8701 C   0  0  0  0  0  0  0  0  0  0  0  0
  -11.4090  -17.6361   12.3939 O   0  0  0  0  0  0  0  0  0  0  0  0
   -9.2468  -17.2412   11.5996 C   0  0  0  0  0  0  0  0  0  0  0  0
   -8.0841  -17.6389   11.1309 N   0  0  0  0  0  0  0  0  0  0  0  0
   -7.3096  -16.6135   11.0243 N   0  0  0  0  0  0  0  0  0  0  0  0
   -7.9859  -15.5240   11.4335 C   0  0  0  0  0  0  0  0  0  0  0  0
   -9.1858  -15.9103   11.7847 N   0  0  0  0  0  0  0  0  0  0  0  0
  1  2  1  0
  2  3  2  0
  2 10  1  0
  3  4  1  0
  3  7  1  0
  4  5  2  0
  5  6  1  0
  6  7  1  0
  7  8  2  0
  8  9  1  0
  9 10  2  0
  9 11  1  0
 11 12  1  0
 12 13  2  0
 12 14  1  0
 14 15  2  0
 14 18  1  0
 15 16  1  0
 16 17  1  0
 17 18  2  0
M  END
>  <Gold.Gold.Protein.RotatedWaterAtoms>  (454) 


>  <Gold.Id.Protein>  (454) 


>  <Gold.PLP.Chemscore.CHOScore>  (454) 
0.0000

>  <Gold.PLP.Chemscore.Hbond>  (454) 
5.0000

>  <Gold.PLP.Chemscore.Internal.Correction>  (454) 
0.3986

>  <Gold.PLP.Chemscore.Metal>  (454) 
0.0000

>  <Gold.PLP.Fitness>  (454) 
39.5451

>  <Gold.PLP.PLP>  (454) 
-24.7036

>  <Gold.PLP.ligand.clash>  (454) 
0.0000

>  <Gold.PLP.ligand.torsion>  (454) 
0.2785

>  <Gold.PLP.part.buried>  (454) 
-6.7640

>  <Gold.PLP.part.hbond>  (454) 
-6.9677

>  <Gold.PLP.part.metal>  (454) 
0.0000

>  <Gold.PLP.part.nonpolar>  (454) 
-11.9284

>  <Gold.PLP.part.repulsive>  (454) 
0.3938

>  <Gold.Protein.RotatedAtoms>  (454) 


>  <Gold.Protein.RotatedTorsions>  (454) 


>  <Gold.Protein.RotatedWaterAtoms>  (454) 


>  <Gold.Version>  (454) 
5.3.0

>  <PLP.Chemscore.CHOScore>  (454) 


>  <PLP.Chemscore.Hbond>  (454) 


>  <PLP.Chemscore.Internal.Correction>  (454) 


>  <PLP.Chemscore.Metal>  (454) 


>  <PLP.Fitness>  (454) 


>  <PLP.PLP>  (454) 


>  <PLP.ligand.clash>  (454) 


>  <PLP.ligand.torsion>  (454) 


>  <PLP.part.buried>  (454) 


>  <PLP.part.hbond>  (454) 


>  <PLP.part.metal>  (454) 


>  <PLP.part.nonpolar>  (454) 


>  <PLP.part.repulsive>  (454) 


>  <Version>  (454) 


$$$$
3454|Compound_2123|Compounds_3D_F|sdf|618|dock2|1
     RDKit          3D

 18 20  0  0  0  0  0  0  0  0999 V2000
  -13.9521  -20.4954   14.2133 O   0  0  0  0  0  0  0  0  0  0  0  0
  -13.1144  -20.7724   13.1870 C   0  0  0  0  0  0  0  0  0  0  0  0
  -13.3066  -21.9196   12.3924 C   0  0  0  0  0  0  0  0  0  0  0  0
  -14.2059  -22.9190   12.3939 N   0  0  0  0  0  0  0  0  0  0  0  0
  -13.9478  -23.7485   11.4446 N   0  0  0  0  0  0  0  0  0  0  0  0
  -12.8139  -23.3139   10.7424 N   0  0  0  0  0  0  0  0  0  0  0  0
  -12.4042  -22.1545   11.3395 C   0  0  0  0  0  0  0  0  0  0  0  0
  -11.4116  -21.2956   11.1314 N   0  0  0  0  0  0  0  0  0  0  0  0
  -11.2699  -20.2316   11.9028 C   0  0  0  0  0  0  0  0  0  0  0  0
  -12.1002  -19.9675   12.9041 N   0  0  0  0  0  0  0  0  0  0  0  0
  -10.2204  -19.3575   11.6553 N   0  0  0  0  0  0  0  0  0  0  0  0
  -10.3710  -18.0394   11.8891 C   0  0  0  0  0  0  0  0  0  0  0  0
  -11.4273  -17.6149   12.3167 O   0  0  0  0  0  0  0  0  0  0  0  0
   -9.2530  -17.1088   11.6250 C   0  0  0  0  0  0  0  0  0  0  0  0
   -8.0471  -17.4437   11.2206 N   0  0  0  0  0  0  0  0  0  0  0  0
   -7.3409  -16.3719   11.0972 N   0  0  0  0  0  0  0  0  0  0  0  0
   -8.1068  -15.3161   11.4294 C   0  0  0  0  0  0  0  0  0  0  0  0
   -9.2911  -15.7702   11.7510 N   0  0  0  0  0  0  0  0  0  0  0  0
  1  2  1  0
  2  3  2  0
  2 10  1  0
  3  4  1  0
  3  7  1  0
  4  5  2  0
  5  6  1  0
  6  7  1  0
  7  8  2  0
  8  9  1  0
  9 10  2  0
  9 11  1  0
 11 12  1  0
 12 13  2  0
 12 14  1  0
 14 15  2  0
 14 18  1  0
 15 16  1  0
 16 17  1  0
 17 18  2  0
M  END
>  <Gold.Gold.Protein.RotatedWaterAtoms>  (455) 


>  <Gold.Id.Protein>  (455) 


>  <Gold.PLP.Chemscore.CHOScore>  (455) 
0.0000

>  <Gold.PLP.Chemscore.Hbond>  (455) 
4.9420

>  <Gold.PLP.Chemscore.Internal.Correction>  (455) 
0.3986

>  <Gold.PLP.Chemscore.Metal>  (455) 
0.0000

>  <Gold.PLP.Fitness>  (455) 
39.1789

>  <Gold.PLP.PLP>  (455) 
-24.4118

>  <Gold.PLP.ligand.clash>  (455) 
0.0000

>  <Gold.PLP.ligand.torsion>  (455) 
0.2288

>  <Gold.PLP.part.buried>  (455) 
-6.4401

>  <Gold.PLP.part.hbond>  (455) 
-7.4771

>  <Gold.PLP.part.metal>  (455) 
0.0000

>  <Gold.PLP.part.nonpolar>  (455) 
-11.7258

>  <Gold.PLP.part.repulsive>  (455) 
0.3656

>  <Gold.Protein.RotatedAtoms>  (455) 


>  <Gold.Protein.RotatedTorsions>  (455) 


>  <Gold.Protein.RotatedWaterAtoms>  (455) 


>  <Gold.Version>  (455) 
5.3.0

>  <PLP.Chemscore.CHOScore>  (455) 


>  <PLP.Chemscore.Hbond>  (455) 


>  <PLP.Chemscore.Internal.Correction>  (455) 


>  <PLP.Chemscore.Metal>  (455) 


>  <PLP.Fitness>  (455) 


>  <PLP.PLP>  (455) 


>  <PLP.ligand.clash>  (455) 


>  <PLP.ligand.torsion>  (455) 


>  <PLP.part.buried>  (455) 


>  <PLP.part.hbond>  (455) 


>  <PLP.part.metal>  (455) 


>  <PLP.part.nonpolar>  (455) 


>  <PLP.part.repulsive>  (455) 


>  <Version>  (455) 


$$$$
3455|Compound_2123|Compounds_3D_F|sdf|618|dock3|1
     RDKit          3D

 18 20  0  0  0  0  0  0  0  0999 V2000
  -14.0476  -20.4671   14.1883 O   0  0  0  0  0  0  0  0  0  0  0  0
  -13.2935  -20.7161   13.0922 C   0  0  0  0  0  0  0  0  0  0  0  0
  -13.6299  -21.7628   12.2115 C   0  0  0  0  0  0  0  0  0  0  0  0
  -14.6142  -22.6779   12.1785 N   0  0  0  0  0  0  0  0  0  0  0  0
  -14.4823  -23.4331   11.1448 N   0  0  0  0  0  0  0  0  0  0  0  0
  -13.3525  -23.0319   10.4166 N   0  0  0  0  0  0  0  0  0  0  0  0
  -12.8091  -21.9729   11.0889 C   0  0  0  0  0  0  0  0  0  0  0  0
  -11.7557  -21.1855   10.8983 N   0  0  0  0  0  0  0  0  0  0  0  0
  -11.4782  -20.2148   11.7517 C   0  0  0  0  0  0  0  0  0  0  0  0
  -12.2273  -19.9770   12.8212 N   0  0  0  0  0  0  0  0  0  0  0  0
  -10.3688  -19.4134   11.5199 N   0  0  0  0  0  0  0  0  0  0  0  0
  -10.4004  -18.1069   11.8467 C   0  0  0  0  0  0  0  0  0  0  0  0
  -11.4016  -17.6292   12.3447 O   0  0  0  0  0  0  0  0  0  0  0  0
   -9.2186  -17.2538   11.5993 C   0  0  0  0  0  0  0  0  0  0  0  0
   -8.0268  -17.6711   11.2314 N   0  0  0  0  0  0  0  0  0  0  0  0
   -7.2505  -16.6486   11.1118 N   0  0  0  0  0  0  0  0  0  0  0  0
   -7.9552  -15.5410   11.4092 C   0  0  0  0  0  0  0  0  0  0  0  0
   -9.1740  -15.9137   11.7058 N   0  0  0  0  0  0  0  0  0  0  0  0
  1  2  1  0
  2  3  2  0
  2 10  1  0
  3  4  1  0
  3  7  1  0
  4  5  2  0
  5  6  1  0
  6  7  1  0
  7  8  2  0
  8  9  1  0
  9 10  2  0
  9 11  1  0
 11 12  1  0
 12 13  2  0
 12 14  1  0
 14 15  2  0
 14 18  1  0
 15 16  1  0
 16 17  1  0
 17 18  2  0
M  END
>  <Gold.Gold.Protein.RotatedWaterAtoms>  (456) 


>  <Gold.Id.Protein>  (456) 


>  <Gold.PLP.Chemscore.CHOScore>  (456) 
0.0000

>  <Gold.PLP.Chemscore.Hbond>  (456) 
4.9920

>  <Gold.PLP.Chemscore.Internal.Correction>  (456) 
0.3986

>  <Gold.PLP.Chemscore.Metal>  (456) 
0.0000

>  <Gold.PLP.Fitness>  (456) 
39.1822

>  <Gold.PLP.PLP>  (456) 
-24.3779

>  <Gold.PLP.ligand.clash>  (456) 
0.0000

>  <Gold.PLP.ligand.torsion>  (456) 
0.2852

>  <Gold.PLP.part.buried>  (456) 
-6.4764

>  <Gold.PLP.part.hbond>  (456) 
-6.4960

>  <Gold.PLP.part.metal>  (456) 
0.0000

>  <Gold.PLP.part.nonpolar>  (456) 
-11.8117

>  <Gold.PLP.part.repulsive>  (456) 
0.3830

>  <Gold.Protein.RotatedAtoms>  (456) 


>  <Gold.Protein.RotatedTorsions>  (456) 


>  <Gold.Protein.RotatedWaterAtoms>  (456) 


>  <Gold.Version>  (456) 
5.3.0

>  <PLP.Chemscore.CHOScore>  (456) 


>  <PLP.Chemscore.Hbond>  (456) 


>  <PLP.Chemscore.Internal.Correction>  (456) 


>  <PLP.Chemscore.Metal>  (456) 


>  <PLP.Fitness>  (456) 


>  <PLP.PLP>  (456) 


>  <PLP.ligand.clash>  (456) 


>  <PLP.ligand.torsion>  (456) 


>  <PLP.part.buried>  (456) 


>  <PLP.part.hbond>  (456) 


>  <PLP.part.metal>  (456) 


>  <PLP.part.nonpolar>  (456) 


>  <PLP.part.repulsive>  (456) 


>  <Version>  (456) 


$$$$
3456|Compound_2124|Compounds_3D_F|sdf|619|dock1|1
     RDKit          3D

 31 35  0  0  0  0  0  0  0  0999 V2000
  -12.6804  -21.3591   13.4384 O   0  0  0  0  0  0  0  0  0  0  0  0
  -13.6866  -20.6631   12.7006 C   0  0  0  0  0  0  0  0  0  0  0  0
  -13.1068  -20.1920   11.3659 C   0  0  0  0  0  0  0  0  0  0  0  0
  -12.6301  -21.3124   10.5907 O   0  0  0  0  0  0  0  0  0  0  0  0
  -12.5854  -20.9323    9.2835 C   0  0  0  0  0  0  0  0  0  0  0  0
  -11.7751  -21.4254    8.3684 C   0  0  0  0  0  0  0  0  0  0  0  0
  -13.6209  -19.8479    9.0550 C   0  0  0  0  0  0  0  0  0  0  0  0
  -14.6307  -20.3021    8.1513 O   0  0  0  0  0  0  0  0  0  0  0  0
  -14.2190  -19.5969   10.4619 C   0  0  0  0  0  0  0  0  0  0  0  0
  -15.4511  -20.3008   10.6303 O   0  0  0  0  0  0  0  0  0  0  0  0
  -12.0333  -19.2180   11.5835 N   0  0  0  0  0  0  0  0  0  0  0  0
  -12.1427  -18.0329   12.2467 C   0  0  0  0  0  0  0  0  0  0  0  0
  -10.9957  -17.4184   12.2521 N   0  0  0  0  0  0  0  0  0  0  0  0
  -10.0795  -18.1675   11.5923 C   0  0  0  0  0  0  0  0  0  0  0  0
  -10.7339  -19.3349   11.1609 C   0  0  0  0  0  0  0  0  0  0  0  0
  -10.0453  -20.2465   10.4815 N   0  0  0  0  0  0  0  0  0  0  0  0
   -8.7697  -20.0624   10.2144 C   0  0  0  0  0  0  0  0  0  0  0  0
   -8.1138  -18.9834   10.5994 N   0  0  0  0  0  0  0  0  0  0  0  0
   -8.7167  -18.0198   11.2871 C   0  0  0  0  0  0  0  0  0  0  0  0
   -8.0178  -16.8889   11.6872 N   0  0  0  0  0  0  0  0  0  0  0  0
   -8.4094  -15.6708   11.2650 C   0  0  0  0  0  0  0  0  0  0  0  0
   -9.3733  -15.5621   10.5328 O   0  0  0  0  0  0  0  0  0  0  0  0
   -7.6660  -14.4681   11.6912 C   0  0  0  0  0  0  0  0  0  0  0  0
   -6.4343  -14.6027   12.3486 C   0  0  0  0  0  0  0  0  0  0  0  0
   -5.7352  -13.5040   12.7476 C   0  0  0  0  0  0  0  0  0  0  0  0
   -6.2400  -12.2259   12.5060 C   0  0  0  0  0  0  0  0  0  0  0  0
   -5.7843  -10.9651   12.7781 N   0  0  0  0  0  0  0  0  0  0  0  0
   -6.7079  -10.0300   12.3040 N   0  0  0  0  0  0  0  0  0  0  0  0
   -7.7174  -10.6384   11.7496 C   0  0  0  0  0  0  0  0  0  0  0  0
   -7.4772  -12.0754   11.8457 C   0  0  0  0  0  0  0  0  0  0  0  0
   -8.1859  -13.2044   11.4347 C   0  0  0  0  0  0  0  0  0  0  0  0
  1  2  1  0
  2  3  1  0
  3  4  1  0
  3  9  1  0
  3 11  1  0
  4  5  1  0
  5  6  2  0
  5  7  1  0
  7  8  1  0
  7  9  1  0
  9 10  1  0
 11 12  1  0
 11 15  1  0
 12 13  2  0
 13 14  1  0
 14 15  2  0
 14 19  1  0
 15 16  1  0
 16 17  2  0
 17 18  1  0
 18 19  2  0
 19 20  1  0
 20 21  1  0
 21 22  2  0
 21 23  1  0
 23 24  2  0
 23 31  1  0
 24 25  1  0
 25 26  2  0
 26 27  1  0
 26 30  1  0
 27 28  1  0
 28 29  2  0
 29 30  1  0
 30 31  2  0
M  END
>  <Gold.Gold.Protein.RotatedWaterAtoms>  (457) 


>  <Gold.Id.Protein>  (457) 


>  <Gold.PLP.Chemscore.CHOScore>  (457) 
0.0000

>  <Gold.PLP.Chemscore.Hbond>  (457) 
2.6597

>  <Gold.PLP.Chemscore.Internal.Correction>  (457) 
0.3805

>  <Gold.PLP.Chemscore.Metal>  (457) 
0.0000

>  <Gold.PLP.Fitness>  (457) 
70.5911

>  <Gold.PLP.PLP>  (457) 
-63.5474

>  <Gold.PLP.ligand.clash>  (457) 
0.0000

>  <Gold.PLP.ligand.torsion>  (457) 
0.6579

>  <Gold.PLP.part.buried>  (457) 
-6.3236

>  <Gold.PLP.part.hbond>  (457) 
-6.6186

>  <Gold.PLP.part.metal>  (457) 
0.0000

>  <Gold.PLP.part.nonpolar>  (457) 
-52.4379

>  <Gold.PLP.part.repulsive>  (457) 
0.6318

>  <Gold.Protein.RotatedAtoms>  (457) 


>  <Gold.Protein.RotatedTorsions>  (457) 


>  <Gold.Protein.RotatedWaterAtoms>  (457) 


>  <Gold.Version>  (457) 
5.3.0

>  <PLP.Chemscore.CHOScore>  (457) 


>  <PLP.Chemscore.Hbond>  (457) 


>  <PLP.Chemscore.Internal.Correction>  (457) 


>  <PLP.Chemscore.Metal>  (457) 


>  <PLP.Fitness>  (457) 


>  <PLP.PLP>  (457) 


>  <PLP.ligand.clash>  (457) 


>  <PLP.ligand.torsion>  (457) 


>  <PLP.part.buried>  (457) 


>  <PLP.part.hbond>  (457) 


>  <PLP.part.metal>  (457) 


>  <PLP.part.nonpolar>  (457) 


>  <PLP.part.repulsive>  (457) 


>  <Version>  (457) 


$$$$
3457|Compound_2124|Compounds_3D_F|sdf|619|dock2|1
     RDKit          3D

 31 35  0  0  0  0  0  0  0  0999 V2000
  -14.8024  -22.9520   11.8602 O   0  0  0  0  0  0  0  0  0  0  0  0
  -14.1048  -21.7402   11.5669 C   0  0  0  0  0  0  0  0  0  0  0  0
  -12.8548  -21.6458   12.4433 C   0  0  0  0  0  0  0  0  0  0  0  0
  -13.1738  -21.9285   13.8224 O   0  0  0  0  0  0  0  0  0  0  0  0
  -12.0266  -22.3071   14.4515 C   0  0  0  0  0  0  0  0  0  0  0  0
  -11.7713  -22.1589   15.7360 C   0  0  0  0  0  0  0  0  0  0  0  0
  -11.0916  -22.9262   13.4304 C   0  0  0  0  0  0  0  0  0  0  0  0
  -10.8697  -24.3066   13.7267 O   0  0  0  0  0  0  0  0  0  0  0  0
  -11.8461  -22.7698   12.0864 C   0  0  0  0  0  0  0  0  0  0  0  0
  -12.5240  -23.9772   11.7335 O   0  0  0  0  0  0  0  0  0  0  0  0
  -12.2323  -20.3250   12.3154 N   0  0  0  0  0  0  0  0  0  0  0  0
  -12.7903  -19.1335   12.6690 C   0  0  0  0  0  0  0  0  0  0  0  0
  -11.9609  -18.1623   12.4196 N   0  0  0  0  0  0  0  0  0  0  0  0
  -10.8209  -18.6674   11.8894 C   0  0  0  0  0  0  0  0  0  0  0  0
  -10.9796  -20.0630   11.8225 C   0  0  0  0  0  0  0  0  0  0  0  0
   -9.9886  -20.8020   11.3339 N   0  0  0  0  0  0  0  0  0  0  0  0
   -8.8740  -20.2391   10.9179 C   0  0  0  0  0  0  0  0  0  0  0  0
   -8.6798  -18.9341   10.9621 N   0  0  0  0  0  0  0  0  0  0  0  0
   -9.6112  -18.1151   11.4380 C   0  0  0  0  0  0  0  0  0  0  0  0
   -9.3971  -16.7440   11.4801 N   0  0  0  0  0  0  0  0  0  0  0  0
   -8.1739  -16.2622   11.7752 C   0  0  0  0  0  0  0  0  0  0  0  0
   -7.2584  -17.0275   12.0058 O   0  0  0  0  0  0  0  0  0  0  0  0
   -7.9466  -14.8036   11.8194 C   0  0  0  0  0  0  0  0  0  0  0  0
   -9.0245  -13.9217   11.6536 C   0  0  0  0  0  0  0  0  0  0  0  0
   -8.8326  -12.5738   11.6926 C   0  0  0  0  0  0  0  0  0  0  0  0
   -7.5545  -12.0532   11.8981 C   0  0  0  0  0  0  0  0  0  0  0  0
   -7.0570  -10.7819   11.9852 N   0  0  0  0  0  0  0  0  0  0  0  0
   -5.6782  -10.8417   12.2035 N   0  0  0  0  0  0  0  0  0  0  0  0
   -5.2864  -12.0827   12.2579 C   0  0  0  0  0  0  0  0  0  0  0  0
   -6.4613  -12.9282   12.0667 C   0  0  0  0  0  0  0  0  0  0  0  0
   -6.6650  -14.3077   12.0312 C   0  0  0  0  0  0  0  0  0  0  0  0
  1  2  1  0
  2  3  1  0
  3  4  1  0
  3  9  1  0
  3 11  1  0
  4  5  1  0
  5  6  2  0
  5  7  1  0
  7  8  1  0
  7  9  1  0
  9 10  1  0
 11 12  1  0
 11 15  1  0
 12 13  2  0
 13 14  1  0
 14 15  2  0
 14 19  1  0
 15 16  1  0
 16 17  2  0
 17 18  1  0
 18 19  2  0
 19 20  1  0
 20 21  1  0
 21 22  2  0
 21 23  1  0
 23 24  2  0
 23 31  1  0
 24 25  1  0
 25 26  2  0
 26 27  1  0
 26 30  1  0
 27 28  1  0
 28 29  2  0
 29 30  1  0
 30 31  2  0
M  END
>  <Gold.Gold.Protein.RotatedWaterAtoms>  (458) 


>  <Gold.Id.Protein>  (458) 


>  <Gold.PLP.Chemscore.CHOScore>  (458) 
1.9258

>  <Gold.PLP.Chemscore.Hbond>  (458) 
2.7120

>  <Gold.PLP.Chemscore.Internal.Correction>  (458) 
0.3805

>  <Gold.PLP.Chemscore.Metal>  (458) 
0.0000

>  <Gold.PLP.Fitness>  (458) 
71.7344

>  <Gold.PLP.PLP>  (458) 
-58.2283

>  <Gold.PLP.ligand.clash>  (458) 
0.0000

>  <Gold.PLP.ligand.torsion>  (458) 
0.3939

>  <Gold.PLP.part.buried>  (458) 
-10.9478

>  <Gold.PLP.part.hbond>  (458) 
-4.2451

>  <Gold.PLP.part.metal>  (458) 
0.0000

>  <Gold.PLP.part.nonpolar>  (458) 
-45.1548

>  <Gold.PLP.part.repulsive>  (458) 
0.7486

>  <Gold.Protein.RotatedAtoms>  (458) 


>  <Gold.Protein.RotatedTorsions>  (458) 


>  <Gold.Protein.RotatedWaterAtoms>  (458) 


>  <Gold.Version>  (458) 
5.3.0

>  <PLP.Chemscore.CHOScore>  (458) 


>  <PLP.Chemscore.Hbond>  (458) 


>  <PLP.Chemscore.Internal.Correction>  (458) 


>  <PLP.Chemscore.Metal>  (458) 


>  <PLP.Fitness>  (458) 


>  <PLP.PLP>  (458) 


>  <PLP.ligand.clash>  (458) 


>  <PLP.ligand.torsion>  (458) 


>  <PLP.part.buried>  (458) 


>  <PLP.part.hbond>  (458) 


>  <PLP.part.metal>  (458) 


>  <PLP.part.nonpolar>  (458) 


>  <PLP.part.repulsive>  (458) 


>  <Version>  (458) 


$$$$
3458|Compound_2124|Compounds_3D_F|sdf|619|dock3|1
     RDKit          3D

 31 35  0  0  0  0  0  0  0  0999 V2000
  -13.3491  -20.0864    9.7738 O   0  0  0  0  0  0  0  0  0  0  0  0
  -13.6596  -20.5775   11.0789 C   0  0  0  0  0  0  0  0  0  0  0  0
  -12.3730  -20.7027   11.8966 C   0  0  0  0  0  0  0  0  0  0  0  0
  -12.6602  -21.1542   13.2372 O   0  0  0  0  0  0  0  0  0  0  0  0
  -11.5240  -21.7032   13.7498 C   0  0  0  0  0  0  0  0  0  0  0  0
  -11.2079  -21.7590   15.0281 C   0  0  0  0  0  0  0  0  0  0  0  0
  -10.6825  -22.2389   12.6074 C   0  0  0  0  0  0  0  0  0  0  0  0
  -10.5621  -23.6602   12.6976 O   0  0  0  0  0  0  0  0  0  0  0  0
  -11.4734  -21.8368   11.3374 C   0  0  0  0  0  0  0  0  0  0  0  0
  -12.2602  -22.9275   10.8543 O   0  0  0  0  0  0  0  0  0  0  0  0
  -11.6508  -19.4275   11.9226 N   0  0  0  0  0  0  0  0  0  0  0  0
  -12.1272  -18.2410   12.3930 C   0  0  0  0  0  0  0  0  0  0  0  0
  -11.2218  -17.3154   12.2641 N   0  0  0  0  0  0  0  0  0  0  0  0
  -10.1096  -17.8473   11.7020 C   0  0  0  0  0  0  0  0  0  0  0  0
  -10.3701  -19.2115   11.4822 C   0  0  0  0  0  0  0  0  0  0  0  0
   -9.4249  -19.9683   10.9338 N   0  0  0  0  0  0  0  0  0  0  0  0
   -8.2613  -19.4516   10.6000 C   0  0  0  0  0  0  0  0  0  0  0  0
   -7.9716  -18.1775   10.7879 N   0  0  0  0  0  0  0  0  0  0  0  0
   -8.8511  -17.3446   11.3335 C   0  0  0  0  0  0  0  0  0  0  0  0
   -8.5366  -16.0063   11.5269 N   0  0  0  0  0  0  0  0  0  0  0  0
   -7.2735  -15.6482   11.8294 C   0  0  0  0  0  0  0  0  0  0  0  0
   -6.4097  -16.4967   11.9343 O   0  0  0  0  0  0  0  0  0  0  0  0
   -6.9393  -14.2244   12.0345 C   0  0  0  0  0  0  0  0  0  0  0  0
   -5.7111  -13.8696   12.6114 C   0  0  0  0  0  0  0  0  0  0  0  0
   -5.3866  -12.5613   12.8067 C   0  0  0  0  0  0  0  0  0  0  0  0
   -6.2779  -11.5546   12.4339 C   0  0  0  0  0  0  0  0  0  0  0  0
   -6.2391  -10.1888   12.5000 N   0  0  0  0  0  0  0  0  0  0  0  0
   -7.4247   -9.6691   11.9743 N   0  0  0  0  0  0  0  0  0  0  0  0
   -8.2034  -10.6369   11.5824 C   0  0  0  0  0  0  0  0  0  0  0  0
   -7.5164  -11.8968   11.8524 C   0  0  0  0  0  0  0  0  0  0  0  0
   -7.8408  -13.2382   11.6499 C   0  0  0  0  0  0  0  0  0  0  0  0
  1  2  1  0
  2  3  1  0
  3  4  1  0
  3  9  1  0
  3 11  1  0
  4  5  1  0
  5  6  2  0
  5  7  1  0
  7  8  1  0
  7  9  1  0
  9 10  1  0
 11 12  1  0
 11 15  1  0
 12 13  2  0
 13 14  1  0
 14 15  2  0
 14 19  1  0
 15 16  1  0
 16 17  2  0
 17 18  1  0
 18 19  2  0
 19 20  1  0
 20 21  1  0
 21 22  2  0
 21 23  1  0
 23 24  2  0
 23 31  1  0
 24 25  1  0
 25 26  2  0
 26 27  1  0
 26 30  1  0
 27 28  1  0
 28 29  2  0
 29 30  1  0
 30 31  2  0
M  END
>  <Gold.Gold.Protein.RotatedWaterAtoms>  (459) 


>  <Gold.Id.Protein>  (459) 


>  <Gold.PLP.Chemscore.CHOScore>  (459) 
0.0000

>  <Gold.PLP.Chemscore.Hbond>  (459) 
1.4306

>  <Gold.PLP.Chemscore.Internal.Correction>  (459) 
0.3805

>  <Gold.PLP.Chemscore.Metal>  (459) 
0.0000

>  <Gold.PLP.Fitness>  (459) 
68.5949

>  <Gold.PLP.PLP>  (459) 
-64.6445

>  <Gold.PLP.ligand.clash>  (459) 
0.0000

>  <Gold.PLP.ligand.torsion>  (459) 
0.3609

>  <Gold.PLP.part.buried>  (459) 
-8.5019

>  <Gold.PLP.part.hbond>  (459) 
-3.0000

>  <Gold.PLP.part.metal>  (459) 
0.0000

>  <Gold.PLP.part.nonpolar>  (459) 
-54.6688

>  <Gold.PLP.part.repulsive>  (459) 
0.6001

>  <Gold.Protein.RotatedAtoms>  (459) 


>  <Gold.Protein.RotatedTorsions>  (459) 


>  <Gold.Protein.RotatedWaterAtoms>  (459) 


>  <Gold.Version>  (459) 
5.3.0

>  <PLP.Chemscore.CHOScore>  (459) 


>  <PLP.Chemscore.Hbond>  (459) 


>  <PLP.Chemscore.Internal.Correction>  (459) 


>  <PLP.Chemscore.Metal>  (459) 


>  <PLP.Fitness>  (459) 


>  <PLP.PLP>  (459) 


>  <PLP.ligand.clash>  (459) 


>  <PLP.ligand.torsion>  (459) 


>  <PLP.part.buried>  (459) 


>  <PLP.part.hbond>  (459) 


>  <PLP.part.metal>  (459) 


>  <PLP.part.nonpolar>  (459) 


>  <PLP.part.repulsive>  (459) 


>  <Version>  (459) 


$$$$
3459|Compound_2124|Compounds_3D_F|sdf|619|dock4|1
     RDKit          3D

 31 35  0  0  0  0  0  0  0  0999 V2000
  -13.8983  -19.8324   13.5002 O   0  0  0  0  0  0  0  0  0  0  0  0
  -13.2287  -20.8494   12.7528 C   0  0  0  0  0  0  0  0  0  0  0  0
  -12.7755  -20.2795   11.4077 C   0  0  0  0  0  0  0  0  0  0  0  0
  -12.3337  -21.3347   10.5274 O   0  0  0  0  0  0  0  0  0  0  0  0
  -12.4086  -20.8751    9.2474 C   0  0  0  0  0  0  0  0  0  0  0  0
  -11.6638  -21.2849    8.2402 C   0  0  0  0  0  0  0  0  0  0  0  0
  -13.4895  -19.8138    9.1725 C   0  0  0  0  0  0  0  0  0  0  0  0
  -14.5579  -20.2459    8.3272 O   0  0  0  0  0  0  0  0  0  0  0  0
  -13.9753  -19.6682   10.6364 C   0  0  0  0  0  0  0  0  0  0  0  0
  -15.1689  -20.4214   10.8598 O   0  0  0  0  0  0  0  0  0  0  0  0
  -11.7154  -19.2854   11.5981 N   0  0  0  0  0  0  0  0  0  0  0  0
  -11.8489  -18.0701   12.1992 C   0  0  0  0  0  0  0  0  0  0  0  0
  -10.7077  -17.4448   12.1971 N   0  0  0  0  0  0  0  0  0  0  0  0
   -9.7715  -18.2165   11.5940 C   0  0  0  0  0  0  0  0  0  0  0  0
  -10.4066  -19.4103   11.2082 C   0  0  0  0  0  0  0  0  0  0  0  0
   -9.6961  -20.3476   10.5889 N   0  0  0  0  0  0  0  0  0  0  0  0
   -8.4170  -20.1643   10.3387 C   0  0  0  0  0  0  0  0  0  0  0  0
   -7.7787  -19.0611   10.6826 N   0  0  0  0  0  0  0  0  0  0  0  0
   -8.4041  -18.0707   11.3092 C   0  0  0  0  0  0  0  0  0  0  0  0
   -7.7237  -16.9145   11.6666 N   0  0  0  0  0  0  0  0  0  0  0  0
   -8.2366  -15.7080   11.3559 C   0  0  0  0  0  0  0  0  0  0  0  0
   -9.2941  -15.6317   10.7617 O   0  0  0  0  0  0  0  0  0  0  0  0
   -7.5127  -14.4784   11.7366 C   0  0  0  0  0  0  0  0  0  0  0  0
   -6.2493  -14.5678   12.3392 C   0  0  0  0  0  0  0  0  0  0  0  0
   -5.5676  -13.4439   12.6956 C   0  0  0  0  0  0  0  0  0  0  0  0
   -6.1223  -12.1846   12.4647 C   0  0  0  0  0  0  0  0  0  0  0  0
   -5.6944  -10.9074   12.7037 N   0  0  0  0  0  0  0  0  0  0  0  0
   -6.6670  -10.0065   12.2627 N   0  0  0  0  0  0  0  0  0  0  0  0
   -7.6807  -10.6516   11.7601 C   0  0  0  0  0  0  0  0  0  0  0  0
   -7.3918  -12.0795   11.8593 C   0  0  0  0  0  0  0  0  0  0  0  0
   -8.0827  -13.2341   11.4915 C   0  0  0  0  0  0  0  0  0  0  0  0
  1  2  1  0
  2  3  1  0
  3  4  1  0
  3  9  1  0
  3 11  1  0
  4  5  1  0
  5  6  2  0
  5  7  1  0
  7  8  1  0
  7  9  1  0
  9 10  1  0
 11 12  1  0
 11 15  1  0
 12 13  2  0
 13 14  1  0
 14 15  2  0
 14 19  1  0
 15 16  1  0
 16 17  2  0
 17 18  1  0
 18 19  2  0
 19 20  1  0
 20 21  1  0
 21 22  2  0
 21 23  1  0
 23 24  2  0
 23 31  1  0
 24 25  1  0
 25 26  2  0
 26 27  1  0
 26 30  1  0
 27 28  1  0
 28 29  2  0
 29 30  1  0
 30 31  2  0
M  END
>  <Gold.Gold.Protein.RotatedWaterAtoms>  (460) 


>  <Gold.Id.Protein>  (460) 


>  <Gold.PLP.Chemscore.CHOScore>  (460) 
0.0000

>  <Gold.PLP.Chemscore.Hbond>  (460) 
3.5658

>  <Gold.PLP.Chemscore.Internal.Correction>  (460) 
0.3805

>  <Gold.PLP.Chemscore.Metal>  (460) 
0.0000

>  <Gold.PLP.Fitness>  (460) 
73.6195

>  <Gold.PLP.PLP>  (460) 
-63.8786

>  <Gold.PLP.ligand.clash>  (460) 
0.0104

>  <Gold.PLP.ligand.torsion>  (460) 
0.6633

>  <Gold.PLP.part.buried>  (460) 
-9.6630

>  <Gold.PLP.part.hbond>  (460) 
-7.0495

>  <Gold.PLP.part.metal>  (460) 
0.0000

>  <Gold.PLP.part.nonpolar>  (460) 
-50.0242

>  <Gold.PLP.part.repulsive>  (460) 
0.6406

>  <Gold.Protein.RotatedAtoms>  (460) 


>  <Gold.Protein.RotatedTorsions>  (460) 


>  <Gold.Protein.RotatedWaterAtoms>  (460) 


>  <Gold.Version>  (460) 
5.3.0

>  <PLP.Chemscore.CHOScore>  (460) 


>  <PLP.Chemscore.Hbond>  (460) 


>  <PLP.Chemscore.Internal.Correction>  (460) 


>  <PLP.Chemscore.Metal>  (460) 


>  <PLP.Fitness>  (460) 


>  <PLP.PLP>  (460) 


>  <PLP.ligand.clash>  (460) 


>  <PLP.ligand.torsion>  (460) 


>  <PLP.part.buried>  (460) 


>  <PLP.part.hbond>  (460) 


>  <PLP.part.metal>  (460) 


>  <PLP.part.nonpolar>  (460) 


>  <PLP.part.repulsive>  (460) 


>  <Version>  (460) 


$$$$
3460|Compound_2124|Compounds_3D_F|sdf|619|dock5|1
     RDKit          3D

 31 35  0  0  0  0  0  0  0  0999 V2000
  -14.5524  -21.7854   12.5268 O   0  0  0  0  0  0  0  0  0  0  0  0
  -13.6333  -20.7125   12.7395 C   0  0  0  0  0  0  0  0  0  0  0  0
  -13.0776  -20.2421   11.3944 C   0  0  0  0  0  0  0  0  0  0  0  0
  -12.6421  -21.3653   10.5992 O   0  0  0  0  0  0  0  0  0  0  0  0
  -12.6224  -20.9757    9.2942 C   0  0  0  0  0  0  0  0  0  0  0  0
  -11.8447  -21.4770    8.3556 C   0  0  0  0  0  0  0  0  0  0  0  0
  -13.6419  -19.8698    9.0996 C   0  0  0  0  0  0  0  0  0  0  0  0
  -14.6823  -20.2973    8.2180 O   0  0  0  0  0  0  0  0  0  0  0  0
  -14.2001  -19.6185   10.5228 C   0  0  0  0  0  0  0  0  0  0  0  0
  -15.4411  -20.2999   10.7165 O   0  0  0  0  0  0  0  0  0  0  0  0
  -11.9804  -19.2906   11.5925 N   0  0  0  0  0  0  0  0  0  0  0  0
  -12.0539  -18.1025   12.2550 C   0  0  0  0  0  0  0  0  0  0  0  0
  -10.8942  -17.5124   12.2405 N   0  0  0  0  0  0  0  0  0  0  0  0
  -10.0049  -18.2818   11.5674 C   0  0  0  0  0  0  0  0  0  0  0  0
  -10.6908  -19.4358   11.1491 C   0  0  0  0  0  0  0  0  0  0  0  0
  -10.0328  -20.3630   10.4604 N   0  0  0  0  0  0  0  0  0  0  0  0
   -8.7582  -20.2063   10.1722 C   0  0  0  0  0  0  0  0  0  0  0  0
   -8.0733  -19.1408   10.5443 N   0  0  0  0  0  0  0  0  0  0  0  0
   -8.6444  -18.1636   11.2397 C   0  0  0  0  0  0  0  0  0  0  0  0
   -7.9153  -17.0470   11.6261 N   0  0  0  0  0  0  0  0  0  0  0  0
   -8.3624  -15.8128   11.3228 C   0  0  0  0  0  0  0  0  0  0  0  0
   -9.4030  -15.6767   10.7098 O   0  0  0  0  0  0  0  0  0  0  0  0
   -7.5868  -14.6254   11.7344 C   0  0  0  0  0  0  0  0  0  0  0  0
   -6.3401  -14.7848   12.3571 C   0  0  0  0  0  0  0  0  0  0  0  0
   -5.6113  -13.7005   12.7421 C   0  0  0  0  0  0  0  0  0  0  0  0
   -6.1003  -12.4125   12.5208 C   0  0  0  0  0  0  0  0  0  0  0  0
   -5.6154  -11.1613   12.7865 N   0  0  0  0  0  0  0  0  0  0  0  0
   -6.5352  -10.2079   12.3425 N   0  0  0  0  0  0  0  0  0  0  0  0
   -7.5699  -10.7957   11.8130 C   0  0  0  0  0  0  0  0  0  0  0  0
   -7.3522  -12.2372   11.8955 C   0  0  0  0  0  0  0  0  0  0  0  0
   -8.0915  -13.3515   11.4984 C   0  0  0  0  0  0  0  0  0  0  0  0
  1  2  1  0
  2  3  1  0
  3  4  1  0
  3  9  1  0
  3 11  1  0
  4  5  1  0
  5  6  2  0
  5  7  1  0
  7  8  1  0
  7  9  1  0
  9 10  1  0
 11 12  1  0
 11 15  1  0
 12 13  2  0
 13 14  1  0
 14 15  2  0
 14 19  1  0
 15 16  1  0
 16 17  2  0
 17 18  1  0
 18 19  2  0
 19 20  1  0
 20 21  1  0
 21 22  2  0
 21 23  1  0
 23 24  2  0
 23 31  1  0
 24 25  1  0
 25 26  2  0
 26 27  1  0
 26 30  1  0
 27 28  1  0
 28 29  2  0
 29 30  1  0
 30 31  2  0
M  END
>  <Gold.Gold.Protein.RotatedWaterAtoms>  (461) 


>  <Gold.Id.Protein>  (461) 


>  <Gold.PLP.Chemscore.CHOScore>  (461) 
0.0000

>  <Gold.PLP.Chemscore.Hbond>  (461) 
4.0000

>  <Gold.PLP.Chemscore.Internal.Correction>  (461) 
0.3805

>  <Gold.PLP.Chemscore.Metal>  (461) 
0.0000

>  <Gold.PLP.Fitness>  (461) 
76.0077

>  <Gold.PLP.PLP>  (461) 
-64.7869

>  <Gold.PLP.ligand.clash>  (461) 
0.0000

>  <Gold.PLP.ligand.torsion>  (461) 
0.5799

>  <Gold.PLP.part.buried>  (461) 
-7.1451

>  <Gold.PLP.part.hbond>  (461) 
-7.4602

>  <Gold.PLP.part.metal>  (461) 
0.0000

>  <Gold.PLP.part.nonpolar>  (461) 
-51.3225

>  <Gold.PLP.part.repulsive>  (461) 
0.6181

>  <Gold.Protein.RotatedAtoms>  (461) 


>  <Gold.Protein.RotatedTorsions>  (461) 


>  <Gold.Protein.RotatedWaterAtoms>  (461) 


>  <Gold.Version>  (461) 
5.3.0

>  <PLP.Chemscore.CHOScore>  (461) 


>  <PLP.Chemscore.Hbond>  (461) 


>  <PLP.Chemscore.Internal.Correction>  (461) 


>  <PLP.Chemscore.Metal>  (461) 


>  <PLP.Fitness>  (461) 


>  <PLP.PLP>  (461) 


>  <PLP.ligand.clash>  (461) 


>  <PLP.ligand.torsion>  (461) 


>  <PLP.part.buried>  (461) 


>  <PLP.part.hbond>  (461) 


>  <PLP.part.metal>  (461) 


>  <PLP.part.nonpolar>  (461) 


>  <PLP.part.repulsive>  (461) 


>  <Version>  (461) 


$$$$
3461|Compound_2124|Compounds_3D_F|sdf|619|dock6|1
     RDKit          3D

 31 35  0  0  0  0  0  0  0  0999 V2000
  -14.1354  -21.2602   10.4376 O   0  0  0  0  0  0  0  0  0  0  0  0
  -14.3303  -21.5765   11.8172 C   0  0  0  0  0  0  0  0  0  0  0  0
  -12.9849  -21.5421   12.5438 C   0  0  0  0  0  0  0  0  0  0  0  0
  -13.1494  -21.8631   13.9415 O   0  0  0  0  0  0  0  0  0  0  0  0
  -11.9480  -22.2904   14.4203 C   0  0  0  0  0  0  0  0  0  0  0  0
  -11.5412  -22.1917   15.6701 C   0  0  0  0  0  0  0  0  0  0  0  0
  -11.1557  -22.8975   13.2785 C   0  0  0  0  0  0  0  0  0  0  0  0
  -10.9399  -24.2922   13.5046 O   0  0  0  0  0  0  0  0  0  0  0  0
  -12.0564  -22.6779   12.0374 C   0  0  0  0  0  0  0  0  0  0  0  0
  -12.8045  -23.8558   11.7295 O   0  0  0  0  0  0  0  0  0  0  0  0
  -12.3444  -20.2334   12.3843 N   0  0  0  0  0  0  0  0  0  0  0  0
  -12.8591  -19.0321   12.7691 C   0  0  0  0  0  0  0  0  0  0  0  0
  -12.0255  -18.0766   12.4767 N   0  0  0  0  0  0  0  0  0  0  0  0
  -10.9259  -18.6025   11.8849 C   0  0  0  0  0  0  0  0  0  0  0  0
  -11.1154  -19.9946   11.8247 C   0  0  0  0  0  0  0  0  0  0  0  0
  -10.1668  -20.7515   11.2823 N   0  0  0  0  0  0  0  0  0  0  0  0
   -9.0655  -20.2094   10.8074 C   0  0  0  0  0  0  0  0  0  0  0  0
   -8.8437  -18.9085   10.8428 N   0  0  0  0  0  0  0  0  0  0  0  0
   -9.7318  -18.0728   11.3695 C   0  0  0  0  0  0  0  0  0  0  0  0
   -9.4890  -16.7062   11.4019 N   0  0  0  0  0  0  0  0  0  0  0  0
   -8.2546  -16.2481   11.6876 C   0  0  0  0  0  0  0  0  0  0  0  0
   -7.3540  -17.0309   11.9184 O   0  0  0  0  0  0  0  0  0  0  0  0
   -7.9967  -14.7944   11.7215 C   0  0  0  0  0  0  0  0  0  0  0  0
   -9.0086  -13.8951   11.3548 C   0  0  0  0  0  0  0  0  0  0  0  0
   -8.7880  -12.5513   11.3813 C   0  0  0  0  0  0  0  0  0  0  0  0
   -7.5457  -12.0524   11.7748 C   0  0  0  0  0  0  0  0  0  0  0  0
   -7.0334  -10.7903   11.9008 N   0  0  0  0  0  0  0  0  0  0  0  0
   -5.7102  -10.8730   12.3418 N   0  0  0  0  0  0  0  0  0  0  0  0
   -5.3671  -12.1197   12.4986 C   0  0  0  0  0  0  0  0  0  0  0  0
   -6.5190  -12.9450   12.1464 C   0  0  0  0  0  0  0  0  0  0  0  0
   -6.7528  -14.3200   12.1225 C   0  0  0  0  0  0  0  0  0  0  0  0
  1  2  1  0
  2  3  1  0
  3  4  1  0
  3  9  1  0
  3 11  1  0
  4  5  1  0
  5  6  2  0
  5  7  1  0
  7  8  1  0
  7  9  1  0
  9 10  1  0
 11 12  1  0
 11 15  1  0
 12 13  2  0
 13 14  1  0
 14 15  2  0
 14 19  1  0
 15 16  1  0
 16 17  2  0
 17 18  1  0
 18 19  2  0
 19 20  1  0
 20 21  1  0
 21 22  2  0
 21 23  1  0
 23 24  2  0
 23 31  1  0
 24 25  1  0
 25 26  2  0
 26 27  1  0
 26 30  1  0
 27 28  1  0
 28 29  2  0
 29 30  1  0
 30 31  2  0
M  END
>  <Gold.Gold.Protein.RotatedWaterAtoms>  (462) 


>  <Gold.Id.Protein>  (462) 


>  <Gold.PLP.Chemscore.CHOScore>  (462) 
1.8200

>  <Gold.PLP.Chemscore.Hbond>  (462) 
1.6500

>  <Gold.PLP.Chemscore.Internal.Correction>  (462) 
0.3805

>  <Gold.PLP.Chemscore.Metal>  (462) 
0.0000

>  <Gold.PLP.Fitness>  (462) 
68.9294

>  <Gold.PLP.PLP>  (462) 
-58.8520

>  <Gold.PLP.ligand.clash>  (462) 
0.0000

>  <Gold.PLP.ligand.torsion>  (462) 
0.3565

>  <Gold.PLP.part.buried>  (462) 
-11.0109

>  <Gold.PLP.part.hbond>  (462) 
-2.6834

>  <Gold.PLP.part.metal>  (462) 
0.0000

>  <Gold.PLP.part.nonpolar>  (462) 
-47.3109

>  <Gold.PLP.part.repulsive>  (462) 
0.7682

>  <Gold.Protein.RotatedAtoms>  (462) 


>  <Gold.Protein.RotatedTorsions>  (462) 


>  <Gold.Protein.RotatedWaterAtoms>  (462) 


>  <Gold.Version>  (462) 
5.3.0

>  <PLP.Chemscore.CHOScore>  (462) 


>  <PLP.Chemscore.Hbond>  (462) 


>  <PLP.Chemscore.Internal.Correction>  (462) 


>  <PLP.Chemscore.Metal>  (462) 


>  <PLP.Fitness>  (462) 


>  <PLP.PLP>  (462) 


>  <PLP.ligand.clash>  (462) 


>  <PLP.ligand.torsion>  (462) 


>  <PLP.part.buried>  (462) 


>  <PLP.part.hbond>  (462) 


>  <PLP.part.metal>  (462) 


>  <PLP.part.nonpolar>  (462) 


>  <PLP.part.repulsive>  (462) 


>  <Version>  (462) 


$$$$
3462|Compound_2124|Compounds_3D_F|sdf|619|dock7|1
     RDKit          3D

 31 35  0  0  0  0  0  0  0  0999 V2000
  -14.3711  -22.0688   12.2900 O   0  0  0  0  0  0  0  0  0  0  0  0
  -13.7177  -20.8217   12.5328 C   0  0  0  0  0  0  0  0  0  0  0  0
  -13.0935  -20.3108   11.2333 C   0  0  0  0  0  0  0  0  0  0  0  0
  -12.5084  -21.3974   10.4846 O   0  0  0  0  0  0  0  0  0  0  0  0
  -12.4136  -21.0093    9.1824 C   0  0  0  0  0  0  0  0  0  0  0  0
  -11.5255  -21.4491    8.3134 C   0  0  0  0  0  0  0  0  0  0  0  0
  -13.4976  -19.9874    8.8976 C   0  0  0  0  0  0  0  0  0  0  0  0
  -14.4265  -20.4968    7.9383 O   0  0  0  0  0  0  0  0  0  0  0  0
  -14.1871  -19.7789   10.2691 C   0  0  0  0  0  0  0  0  0  0  0  0
  -15.3825  -20.5556   10.3675 O   0  0  0  0  0  0  0  0  0  0  0  0
  -12.0940  -19.2756   11.5118 N   0  0  0  0  0  0  0  0  0  0  0  0
  -12.3061  -18.1115   12.1870 C   0  0  0  0  0  0  0  0  0  0  0  0
  -11.2014  -17.4268   12.2514 N   0  0  0  0  0  0  0  0  0  0  0  0
  -10.2124  -18.1056   11.6212 C   0  0  0  0  0  0  0  0  0  0  0  0
  -10.7730  -19.3039   11.1446 C   0  0  0  0  0  0  0  0  0  0  0  0
   -9.9999  -20.1587   10.4824 N   0  0  0  0  0  0  0  0  0  0  0  0
   -8.7283  -19.8907   10.2739 C   0  0  0  0  0  0  0  0  0  0  0  0
   -8.1587  -18.7797   10.7030 N   0  0  0  0  0  0  0  0  0  0  0  0
   -8.8499  -17.8678   11.3778 C   0  0  0  0  0  0  0  0  0  0  0  0
   -8.2415  -16.7026   11.8247 N   0  0  0  0  0  0  0  0  0  0  0  0
   -8.3597  -15.5652   11.1121 C   0  0  0  0  0  0  0  0  0  0  0  0
   -8.9976  -15.5595   10.0777 O   0  0  0  0  0  0  0  0  0  0  0  0
   -7.7127  -14.3259   11.5881 C   0  0  0  0  0  0  0  0  0  0  0  0
   -6.5381  -14.3979   12.3512 C   0  0  0  0  0  0  0  0  0  0  0  0
   -5.9280  -13.2648   12.7972 C   0  0  0  0  0  0  0  0  0  0  0  0
   -6.4685  -12.0136   12.4989 C   0  0  0  0  0  0  0  0  0  0  0  0
   -6.0971  -10.7309   12.7956 N   0  0  0  0  0  0  0  0  0  0  0  0
   -7.0182   -9.8436   12.2330 N   0  0  0  0  0  0  0  0  0  0  0  0
   -7.9463  -10.5026   11.5998 C   0  0  0  0  0  0  0  0  0  0  0  0
   -7.6491  -11.9261   11.7322 C   0  0  0  0  0  0  0  0  0  0  0  0
   -8.2663  -13.0899   11.2736 C   0  0  0  0  0  0  0  0  0  0  0  0
  1  2  1  0
  2  3  1  0
  3  4  1  0
  3  9  1  0
  3 11  1  0
  4  5  1  0
  5  6  2  0
  5  7  1  0
  7  8  1  0
  7  9  1  0
  9 10  1  0
 11 12  1  0
 11 15  1  0
 12 13  2  0
 13 14  1  0
 14 15  2  0
 14 19  1  0
 15 16  1  0
 16 17  2  0
 17 18  1  0
 18 19  2  0
 19 20  1  0
 20 21  1  0
 21 22  2  0
 21 23  1  0
 23 24  2  0
 23 31  1  0
 24 25  1  0
 25 26  2  0
 26 27  1  0
 26 30  1  0
 27 28  1  0
 28 29  2  0
 29 30  1  0
 30 31  2  0
M  END
>  <Gold.Gold.Protein.RotatedWaterAtoms>  (463) 


>  <Gold.Id.Protein>  (463) 


>  <Gold.PLP.Chemscore.CHOScore>  (463) 
0.2659

>  <Gold.PLP.Chemscore.Hbond>  (463) 
2.6379

>  <Gold.PLP.Chemscore.Internal.Correction>  (463) 
0.3699

>  <Gold.PLP.Chemscore.Metal>  (463) 
0.0000

>  <Gold.PLP.Fitness>  (463) 
70.8465

>  <Gold.PLP.PLP>  (463) 
-64.4669

>  <Gold.PLP.ligand.clash>  (463) 
0.0000

>  <Gold.PLP.ligand.torsion>  (463) 
1.3508

>  <Gold.PLP.part.buried>  (463) 
-7.7903

>  <Gold.PLP.part.hbond>  (463) 
-6.0183

>  <Gold.PLP.part.metal>  (463) 
0.0000

>  <Gold.PLP.part.nonpolar>  (463) 
-51.9013

>  <Gold.PLP.part.repulsive>  (463) 
0.6417

>  <Gold.Protein.RotatedAtoms>  (463) 


>  <Gold.Protein.RotatedTorsions>  (463) 


>  <Gold.Protein.RotatedWaterAtoms>  (463) 


>  <Gold.Version>  (463) 
5.3.0

>  <PLP.Chemscore.CHOScore>  (463) 


>  <PLP.Chemscore.Hbond>  (463) 


>  <PLP.Chemscore.Internal.Correction>  (463) 


>  <PLP.Chemscore.Metal>  (463) 


>  <PLP.Fitness>  (463) 


>  <PLP.PLP>  (463) 


>  <PLP.ligand.clash>  (463) 


>  <PLP.ligand.torsion>  (463) 


>  <PLP.part.buried>  (463) 


>  <PLP.part.hbond>  (463) 


>  <PLP.part.metal>  (463) 


>  <PLP.part.nonpolar>  (463) 


>  <PLP.part.repulsive>  (463) 


>  <Version>  (463) 


$$$$
3463|Compound_2124|Compounds_3D_F|sdf|619|dock8|1
     RDKit          3D

 31 35  0  0  0  0  0  0  0  0999 V2000
  -14.4636  -21.7949   12.5805 O   0  0  0  0  0  0  0  0  0  0  0  0
  -13.6023  -20.6723   12.7781 C   0  0  0  0  0  0  0  0  0  0  0  0
  -13.0435  -20.2140   11.4301 C   0  0  0  0  0  0  0  0  0  0  0  0
  -12.5904  -21.3430   10.6532 O   0  0  0  0  0  0  0  0  0  0  0  0
  -12.5667  -20.9711    9.3431 C   0  0  0  0  0  0  0  0  0  0  0  0
  -11.7775  -21.4764    8.4162 C   0  0  0  0  0  0  0  0  0  0  0  0
  -13.5974  -19.8797    9.1270 C   0  0  0  0  0  0  0  0  0  0  0  0
  -14.6274  -20.3310    8.2449 O   0  0  0  0  0  0  0  0  0  0  0  0
  -14.1673  -19.6153   10.5430 C   0  0  0  0  0  0  0  0  0  0  0  0
  -15.4018  -20.3079   10.7385 O   0  0  0  0  0  0  0  0  0  0  0  0
  -11.9583  -19.2476   11.6219 N   0  0  0  0  0  0  0  0  0  0  0  0
  -12.0557  -18.0394   12.2439 C   0  0  0  0  0  0  0  0  0  0  0  0
  -10.9005  -17.4405   12.2362 N   0  0  0  0  0  0  0  0  0  0  0  0
   -9.9905  -18.2236   11.6082 C   0  0  0  0  0  0  0  0  0  0  0  0
  -10.6580  -19.3962   11.2122 C   0  0  0  0  0  0  0  0  0  0  0  0
   -9.9776  -20.3393   10.5685 N   0  0  0  0  0  0  0  0  0  0  0  0
   -8.6980  -20.1814   10.3039 C   0  0  0  0  0  0  0  0  0  0  0  0
   -8.0299  -19.0988   10.6566 N   0  0  0  0  0  0  0  0  0  0  0  0
   -8.6239  -18.1046   11.3073 C   0  0  0  0  0  0  0  0  0  0  0  0
   -7.9123  -16.9702   11.6737 N   0  0  0  0  0  0  0  0  0  0  0  0
   -8.3882  -15.7479   11.3655 C   0  0  0  0  0  0  0  0  0  0  0  0
   -9.4395  -15.6384   10.7657 O   0  0  0  0  0  0  0  0  0  0  0  0
   -7.6311  -14.5415   11.7558 C   0  0  0  0  0  0  0  0  0  0  0  0
   -6.3620  -14.6696   12.3392 C   0  0  0  0  0  0  0  0  0  0  0  0
   -5.6499  -13.5675   12.7041 C   0  0  0  0  0  0  0  0  0  0  0  0
   -6.1786  -12.2922   12.5012 C   0  0  0  0  0  0  0  0  0  0  0  0
   -5.7182  -11.0293   12.7548 N   0  0  0  0  0  0  0  0  0  0  0  0
   -6.6756  -10.0993   12.3419 N   0  0  0  0  0  0  0  0  0  0  0  0
   -7.7107  -10.7128   11.8432 C   0  0  0  0  0  0  0  0  0  0  0  0
   -7.4534  -12.1484   11.9154 C   0  0  0  0  0  0  0  0  0  0  0  0
   -8.1756  -13.2807   11.5387 C   0  0  0  0  0  0  0  0  0  0  0  0
  1  2  1  0
  2  3  1  0
  3  4  1  0
  3  9  1  0
  3 11  1  0
  4  5  1  0
  5  6  2  0
  5  7  1  0
  7  8  1  0
  7  9  1  0
  9 10  1  0
 11 12  1  0
 11 15  1  0
 12 13  2  0
 13 14  1  0
 14 15  2  0
 14 19  1  0
 15 16  1  0
 16 17  2  0
 17 18  1  0
 18 19  2  0
 19 20  1  0
 20 21  1  0
 21 22  2  0
 21 23  1  0
 23 24  2  0
 23 31  1  0
 24 25  1  0
 25 26  2  0
 26 27  1  0
 26 30  1  0
 27 28  1  0
 28 29  2  0
 29 30  1  0
 30 31  2  0
M  END
>  <Gold.Gold.Protein.RotatedWaterAtoms>  (464) 


>  <Gold.Id.Protein>  (464) 


>  <Gold.PLP.Chemscore.CHOScore>  (464) 
0.0000

>  <Gold.PLP.Chemscore.Hbond>  (464) 
3.0725

>  <Gold.PLP.Chemscore.Internal.Correction>  (464) 
0.3699

>  <Gold.PLP.Chemscore.Metal>  (464) 
0.0000

>  <Gold.PLP.Fitness>  (464) 
73.5710

>  <Gold.PLP.PLP>  (464) 
-65.1584

>  <Gold.PLP.ligand.clash>  (464) 
0.0000

>  <Gold.PLP.ligand.torsion>  (464) 
0.5874

>  <Gold.PLP.part.buried>  (464) 
-7.6551

>  <Gold.PLP.part.hbond>  (464) 
-7.2984

>  <Gold.PLP.part.metal>  (464) 
0.0000

>  <Gold.PLP.part.nonpolar>  (464) 
-52.1544

>  <Gold.PLP.part.repulsive>  (464) 
0.6273

>  <Gold.Protein.RotatedAtoms>  (464) 


>  <Gold.Protein.RotatedTorsions>  (464) 


>  <Gold.Protein.RotatedWaterAtoms>  (464) 


>  <Gold.Version>  (464) 
5.3.0

>  <PLP.Chemscore.CHOScore>  (464) 


>  <PLP.Chemscore.Hbond>  (464) 


>  <PLP.Chemscore.Internal.Correction>  (464) 


>  <PLP.Chemscore.Metal>  (464) 


>  <PLP.Fitness>  (464) 


>  <PLP.PLP>  (464) 


>  <PLP.ligand.clash>  (464) 


>  <PLP.ligand.torsion>  (464) 


>  <PLP.part.buried>  (464) 


>  <PLP.part.hbond>  (464) 


>  <PLP.part.metal>  (464) 


>  <PLP.part.nonpolar>  (464) 


>  <PLP.part.repulsive>  (464) 


>  <Version>  (464) 


$$$$
3464|Compound_2125|Compounds_3D_F|sdf|620|dock1|1
     RDKit          3D

 24 26  0  0  0  0  0  0  0  0999 V2000
  -14.3218  -20.1316    9.4924 O   0  0  0  0  0  0  0  0  0  0  0  0
  -13.5496  -19.9663   10.5917 C   0  0  0  0  0  0  0  0  0  0  0  0
  -13.6972  -20.8139   11.7071 C   0  0  0  0  0  0  0  0  0  0  0  0
  -14.4967  -21.8574   11.9896 N   0  0  0  0  0  0  0  0  0  0  0  0
  -14.2403  -22.3038   13.1699 N   0  0  0  0  0  0  0  0  0  0  0  0
  -13.2129  -21.5400   13.7440 N   0  0  0  0  0  0  0  0  0  0  0  0
  -12.8659  -20.5939   12.8201 C   0  0  0  0  0  0  0  0  0  0  0  0
  -11.9786  -19.6053   12.7826 N   0  0  0  0  0  0  0  0  0  0  0  0
  -11.8754  -18.8349   11.7127 C   0  0  0  0  0  0  0  0  0  0  0  0
  -12.6349  -19.0085   10.6393 N   0  0  0  0  0  0  0  0  0  0  0  0
  -10.9365  -17.8117   11.7117 N   0  0  0  0  0  0  0  0  0  0  0  0
   -9.6253  -18.1014   11.6001 C   0  0  0  0  0  0  0  0  0  0  0  0
   -9.2646  -19.2583   11.5002 O   0  0  0  0  0  0  0  0  0  0  0  0
   -8.6268  -17.0144   11.5982 C   0  0  0  0  0  0  0  0  0  0  0  0
   -9.0000  -15.7194   11.9689 C   0  0  0  0  0  0  0  0  0  0  0  0
   -8.0653  -14.7090   11.9641 C   0  0  0  0  0  0  0  0  0  0  0  0
   -6.7525  -14.9745   11.5923 C   0  0  0  0  0  0  0  0  0  0  0  0
   -5.8343  -13.9757   11.5904 O   0  0  0  0  0  0  0  0  0  0  0  0
   -6.0505  -12.8936   12.4987 C   0  0  0  0  0  0  0  0  0  0  0  0
   -7.0296  -11.8945   11.8783 C   0  0  0  0  0  0  0  0  0  0  0  0
   -6.5839  -10.4701   12.2110 C   0  0  0  0  0  0  0  0  0  0  0  0
   -7.7200   -9.4937   11.8985 C   0  0  0  0  0  0  0  0  0  0  0  0
   -6.3771  -16.2609   11.2237 C   0  0  0  0  0  0  0  0  0  0  0  0
   -7.3047  -17.2787   11.2302 C   0  0  0  0  0  0  0  0  0  0  0  0
  1  2  1  0
  2  3  2  0
  2 10  1  0
  3  4  1  0
  3  7  1  0
  4  5  2  0
  5  6  1  0
  6  7  1  0
  7  8  2  0
  8  9  1  0
  9 10  2  0
  9 11  1  0
 11 12  1  0
 12 13  2  0
 12 14  1  0
 14 15  2  0
 14 24  1  0
 15 16  1  0
 16 17  2  0
 17 18  1  0
 17 23  1  0
 18 19  1  0
 19 20  1  0
 20 21  1  0
 21 22  1  0
 23 24  2  0
M  END
>  <Gold.Gold.Protein.RotatedWaterAtoms>  (465) 


>  <Gold.Id.Protein>  (465) 


>  <Gold.PLP.Chemscore.CHOScore>  (465) 
0.0000

>  <Gold.PLP.Chemscore.Hbond>  (465) 
2.1296

>  <Gold.PLP.Chemscore.Internal.Correction>  (465) 
1.1929

>  <Gold.PLP.Chemscore.Metal>  (465) 
0.0000

>  <Gold.PLP.Fitness>  (465) 
58.0812

>  <Gold.PLP.PLP>  (465) 
-53.6303

>  <Gold.PLP.ligand.clash>  (465) 
0.0000

>  <Gold.PLP.ligand.torsion>  (465) 
1.5654

>  <Gold.PLP.part.buried>  (465) 
-10.8196

>  <Gold.PLP.part.hbond>  (465) 
-3.4667

>  <Gold.PLP.part.metal>  (465) 
0.0000

>  <Gold.PLP.part.nonpolar>  (465) 
-41.2867

>  <Gold.PLP.part.repulsive>  (465) 
0.6655

>  <Gold.Protein.RotatedAtoms>  (465) 


>  <Gold.Protein.RotatedTorsions>  (465) 


>  <Gold.Protein.RotatedWaterAtoms>  (465) 


>  <Gold.Version>  (465) 
5.3.0

>  <PLP.Chemscore.CHOScore>  (465) 


>  <PLP.Chemscore.Hbond>  (465) 


>  <PLP.Chemscore.Internal.Correction>  (465) 


>  <PLP.Chemscore.Metal>  (465) 


>  <PLP.Fitness>  (465) 


>  <PLP.PLP>  (465) 


>  <PLP.ligand.clash>  (465) 


>  <PLP.ligand.torsion>  (465) 


>  <PLP.part.buried>  (465) 


>  <PLP.part.hbond>  (465) 


>  <PLP.part.metal>  (465) 


>  <PLP.part.nonpolar>  (465) 


>  <PLP.part.repulsive>  (465) 


>  <Version>  (465) 


$$$$
3465|Compound_2125|Compounds_3D_F|sdf|620|dock2|1
     RDKit          3D

 24 26  0  0  0  0  0  0  0  0999 V2000
  -14.2033  -20.6098   13.9692 O   0  0  0  0  0  0  0  0  0  0  0  0
  -13.3054  -20.9496   13.0151 C   0  0  0  0  0  0  0  0  0  0  0  0
  -13.5189  -22.0759   12.1964 C   0  0  0  0  0  0  0  0  0  0  0  0
  -14.4917  -23.0003   12.1126 N   0  0  0  0  0  0  0  0  0  0  0  0
  -14.2189  -23.8457   11.1804 N   0  0  0  0  0  0  0  0  0  0  0  0
  -12.9987  -23.5000   10.5802 N   0  0  0  0  0  0  0  0  0  0  0  0
  -12.5512  -22.3787   11.2217 C   0  0  0  0  0  0  0  0  0  0  0  0
  -11.4800  -21.6006   11.1066 N   0  0  0  0  0  0  0  0  0  0  0  0
  -11.3221  -20.5527   11.8976 C   0  0  0  0  0  0  0  0  0  0  0  0
  -12.2106  -20.2268   12.8269 N   0  0  0  0  0  0  0  0  0  0  0  0
  -10.1891  -19.7640   11.7469 N   0  0  0  0  0  0  0  0  0  0  0  0
  -10.2737  -18.4280   11.9001 C   0  0  0  0  0  0  0  0  0  0  0  0
  -11.3418  -17.9134   12.1703 O   0  0  0  0  0  0  0  0  0  0  0  0
   -9.0698  -17.5890   11.7408 C   0  0  0  0  0  0  0  0  0  0  0  0
   -7.8919  -18.1432   11.2317 C   0  0  0  0  0  0  0  0  0  0  0  0
   -6.7715  -17.3569   11.0865 C   0  0  0  0  0  0  0  0  0  0  0  0
   -6.8101  -16.0142   11.4442 C   0  0  0  0  0  0  0  0  0  0  0  0
   -5.7038  -15.2427   11.2980 O   0  0  0  0  0  0  0  0  0  0  0  0
   -5.9076  -13.8342   11.1655 C   0  0  0  0  0  0  0  0  0  0  0  0
   -6.0192  -13.2018   12.5546 C   0  0  0  0  0  0  0  0  0  0  0  0
   -6.1862  -11.6884   12.4139 C   0  0  0  0  0  0  0  0  0  0  0  0
   -7.5932  -11.3759   11.8995 C   0  0  0  0  0  0  0  0  0  0  0  0
   -7.9796  -15.4591   11.9501 C   0  0  0  0  0  0  0  0  0  0  0  0
   -9.1064  -16.2374   12.0943 C   0  0  0  0  0  0  0  0  0  0  0  0
  1  2  1  0
  2  3  2  0
  2 10  1  0
  3  4  1  0
  3  7  1  0
  4  5  2  0
  5  6  1  0
  6  7  1  0
  7  8  2  0
  8  9  1  0
  9 10  2  0
  9 11  1  0
 11 12  1  0
 12 13  2  0
 12 14  1  0
 14 15  2  0
 14 24  1  0
 15 16  1  0
 16 17  2  0
 17 18  1  0
 17 23  1  0
 18 19  1  0
 19 20  1  0
 20 21  1  0
 21 22  1  0
 23 24  2  0
M  END
>  <Gold.Gold.Protein.RotatedWaterAtoms>  (466) 


>  <Gold.Id.Protein>  (466) 


>  <Gold.PLP.Chemscore.CHOScore>  (466) 
0.0000

>  <Gold.PLP.Chemscore.Hbond>  (466) 
4.0430

>  <Gold.PLP.Chemscore.Internal.Correction>  (466) 
1.1929

>  <Gold.PLP.Chemscore.Metal>  (466) 
0.0000

>  <Gold.PLP.Fitness>  (466) 
53.4593

>  <Gold.PLP.PLP>  (466) 
-41.8920

>  <Gold.PLP.ligand.clash>  (466) 
0.0902

>  <Gold.PLP.ligand.torsion>  (466) 
0.8322

>  <Gold.PLP.part.buried>  (466) 
-4.2255

>  <Gold.PLP.part.hbond>  (466) 
-5.8481

>  <Gold.PLP.part.metal>  (466) 
0.0000

>  <Gold.PLP.part.nonpolar>  (466) 
-33.9193

>  <Gold.PLP.part.repulsive>  (466) 
0.3665

>  <Gold.Protein.RotatedAtoms>  (466) 


>  <Gold.Protein.RotatedTorsions>  (466) 


>  <Gold.Protein.RotatedWaterAtoms>  (466) 


>  <Gold.Version>  (466) 
5.3.0

>  <PLP.Chemscore.CHOScore>  (466) 


>  <PLP.Chemscore.Hbond>  (466) 


>  <PLP.Chemscore.Internal.Correction>  (466) 


>  <PLP.Chemscore.Metal>  (466) 


>  <PLP.Fitness>  (466) 


>  <PLP.PLP>  (466) 


>  <PLP.ligand.clash>  (466) 


>  <PLP.ligand.torsion>  (466) 


>  <PLP.part.buried>  (466) 


>  <PLP.part.hbond>  (466) 


>  <PLP.part.metal>  (466) 


>  <PLP.part.nonpolar>  (466) 


>  <PLP.part.repulsive>  (466) 


>  <Version>  (466) 


$$$$
3466|Compound_2125|Compounds_3D_F|sdf|620|dock3|1
     RDKit          3D

 24 26  0  0  0  0  0  0  0  0999 V2000
  -14.7976  -19.6815    9.5382 O   0  0  0  0  0  0  0  0  0  0  0  0
  -13.8386  -19.6936   10.4933 C   0  0  0  0  0  0  0  0  0  0  0  0
  -13.7458  -20.7639   11.4044 C   0  0  0  0  0  0  0  0  0  0  0  0
  -14.4430  -21.8989   11.5882 N   0  0  0  0  0  0  0  0  0  0  0  0
  -13.9548  -22.5620   12.5781 N   0  0  0  0  0  0  0  0  0  0  0  0
  -12.8637  -21.8623   13.1151 N   0  0  0  0  0  0  0  0  0  0  0  0
  -12.7280  -20.7213   12.3742 C   0  0  0  0  0  0  0  0  0  0  0  0
  -11.8969  -19.6846   12.3981 N   0  0  0  0  0  0  0  0  0  0  0  0
  -12.0220  -18.7023   11.5216 C   0  0  0  0  0  0  0  0  0  0  0  0
  -12.9634  -18.7027   10.5873 N   0  0  0  0  0  0  0  0  0  0  0  0
  -11.1345  -17.6358   11.5789 N   0  0  0  0  0  0  0  0  0  0  0  0
   -9.8071  -17.8654   11.6063 C   0  0  0  0  0  0  0  0  0  0  0  0
   -9.3867  -19.0062   11.5806 O   0  0  0  0  0  0  0  0  0  0  0  0
   -8.8630  -16.7324   11.6665 C   0  0  0  0  0  0  0  0  0  0  0  0
   -9.3445  -15.4228   11.7490 C   0  0  0  0  0  0  0  0  0  0  0  0
   -8.4600  -14.3696   11.8035 C   0  0  0  0  0  0  0  0  0  0  0  0
   -7.0905  -14.6063   11.7773 C   0  0  0  0  0  0  0  0  0  0  0  0
   -6.2224  -13.5653   11.8327 O   0  0  0  0  0  0  0  0  0  0  0  0
   -6.6623  -12.3889   12.5149 C   0  0  0  0  0  0  0  0  0  0  0  0
   -5.9904  -11.1600   11.8983 C   0  0  0  0  0  0  0  0  0  0  0  0
   -6.8273   -9.9163   12.1996 C   0  0  0  0  0  0  0  0  0  0  0  0
   -8.2192  -10.0765   11.5843 C   0  0  0  0  0  0  0  0  0  0  0  0
   -6.6076  -15.9071   11.6962 C   0  0  0  0  0  0  0  0  0  0  0  0
   -7.4855  -16.9669   11.6460 C   0  0  0  0  0  0  0  0  0  0  0  0
  1  2  1  0
  2  3  2  0
  2 10  1  0
  3  4  1  0
  3  7  1  0
  4  5  2  0
  5  6  1  0
  6  7  1  0
  7  8  2  0
  8  9  1  0
  9 10  2  0
  9 11  1  0
 11 12  1  0
 12 13  2  0
 12 14  1  0
 14 15  2  0
 14 24  1  0
 15 16  1  0
 16 17  2  0
 17 18  1  0
 17 23  1  0
 18 19  1  0
 19 20  1  0
 20 21  1  0
 21 22  1  0
 23 24  2  0
M  END
>  <Gold.Gold.Protein.RotatedWaterAtoms>  (467) 


>  <Gold.Id.Protein>  (467) 


>  <Gold.PLP.Chemscore.CHOScore>  (467) 
0.0000

>  <Gold.PLP.Chemscore.Hbond>  (467) 
2.0000

>  <Gold.PLP.Chemscore.Internal.Correction>  (467) 
1.1875

>  <Gold.PLP.Chemscore.Metal>  (467) 
0.0000

>  <Gold.PLP.Fitness>  (467) 
55.5051

>  <Gold.PLP.PLP>  (467) 
-50.5895

>  <Gold.PLP.ligand.clash>  (467) 
0.0000

>  <Gold.PLP.ligand.torsion>  (467) 
1.1360

>  <Gold.PLP.part.buried>  (467) 
-5.4667

>  <Gold.PLP.part.hbond>  (467) 
-2.0240

>  <Gold.PLP.part.metal>  (467) 
0.0000

>  <Gold.PLP.part.nonpolar>  (467) 
-41.6886

>  <Gold.PLP.part.repulsive>  (467) 
0.5521

>  <Gold.Protein.RotatedAtoms>  (467) 


>  <Gold.Protein.RotatedTorsions>  (467) 


>  <Gold.Protein.RotatedWaterAtoms>  (467) 


>  <Gold.Version>  (467) 
5.3.0

>  <PLP.Chemscore.CHOScore>  (467) 


>  <PLP.Chemscore.Hbond>  (467) 


>  <PLP.Chemscore.Internal.Correction>  (467) 


>  <PLP.Chemscore.Metal>  (467) 


>  <PLP.Fitness>  (467) 


>  <PLP.PLP>  (467) 


>  <PLP.ligand.clash>  (467) 


>  <PLP.ligand.torsion>  (467) 


>  <PLP.part.buried>  (467) 


>  <PLP.part.hbond>  (467) 


>  <PLP.part.metal>  (467) 


>  <PLP.part.nonpolar>  (467) 


>  <PLP.part.repulsive>  (467) 


>  <Version>  (467) 


$$$$
3467|Compound_2125|Compounds_3D_F|sdf|620|dock4|1
     RDKit          3D

 24 26  0  0  0  0  0  0  0  0999 V2000
  -13.9451  -20.8990   14.3221 O   0  0  0  0  0  0  0  0  0  0  0  0
  -13.2230  -20.9693   13.1795 C   0  0  0  0  0  0  0  0  0  0  0  0
  -13.5532  -21.9026   12.1774 C   0  0  0  0  0  0  0  0  0  0  0  0
  -14.5051  -22.8443   12.0533 N   0  0  0  0  0  0  0  0  0  0  0  0
  -14.3830  -23.4498   10.9235 N   0  0  0  0  0  0  0  0  0  0  0  0
  -13.2961  -22.9093   10.2200 N   0  0  0  0  0  0  0  0  0  0  0  0
  -12.7669  -21.9283   11.0116 C   0  0  0  0  0  0  0  0  0  0  0  0
  -11.7502  -21.0804   10.8954 N   0  0  0  0  0  0  0  0  0  0  0  0
  -11.4778  -20.2208   11.8627 C   0  0  0  0  0  0  0  0  0  0  0  0
  -12.1948  -20.1580   12.9768 N   0  0  0  0  0  0  0  0  0  0  0  0
  -10.4069  -19.3510   11.7044 N   0  0  0  0  0  0  0  0  0  0  0  0
  -10.5508  -18.0448   12.0022 C   0  0  0  0  0  0  0  0  0  0  0  0
  -11.6180  -17.6281   12.4095 O   0  0  0  0  0  0  0  0  0  0  0  0
   -9.4127  -17.1198   11.8349 C   0  0  0  0  0  0  0  0  0  0  0  0
   -9.5586  -15.7656   12.1488 C   0  0  0  0  0  0  0  0  0  0  0  0
   -8.4947  -14.9069   11.9897 C   0  0  0  0  0  0  0  0  0  0  0  0
   -7.2770  -15.3841   11.5188 C   0  0  0  0  0  0  0  0  0  0  0  0
   -6.2307  -14.5343   11.3649 O   0  0  0  0  0  0  0  0  0  0  0  0
   -6.1761  -13.4067   12.2414 C   0  0  0  0  0  0  0  0  0  0  0  0
   -7.0431  -12.2791   11.6771 C   0  0  0  0  0  0  0  0  0  0  0  0
   -6.5334  -10.9347   12.1975 C   0  0  0  0  0  0  0  0  0  0  0  0
   -7.5752   -9.8499   11.9151 C   0  0  0  0  0  0  0  0  0  0  0  0
   -7.1276  -16.7301   11.2063 C   0  0  0  0  0  0  0  0  0  0  0  0
   -8.1855  -17.5970   11.3669 C   0  0  0  0  0  0  0  0  0  0  0  0
  1  2  1  0
  2  3  2  0
  2 10  1  0
  3  4  1  0
  3  7  1  0
  4  5  2  0
  5  6  1  0
  6  7  1  0
  7  8  2  0
  8  9  1  0
  9 10  2  0
  9 11  1  0
 11 12  1  0
 12 13  2  0
 12 14  1  0
 14 15  2  0
 14 24  1  0
 15 16  1  0
 16 17  2  0
 17 18  1  0
 17 23  1  0
 18 19  1  0
 19 20  1  0
 20 21  1  0
 21 22  1  0
 23 24  2  0
M  END
>  <Gold.Gold.Protein.RotatedWaterAtoms>  (468) 


>  <Gold.Id.Protein>  (468) 


>  <Gold.PLP.Chemscore.CHOScore>  (468) 
0.0000

>  <Gold.PLP.Chemscore.Hbond>  (468) 
4.1794

>  <Gold.PLP.Chemscore.Internal.Correction>  (468) 
1.1715

>  <Gold.PLP.Chemscore.Metal>  (468) 
0.0000

>  <Gold.PLP.Fitness>  (468) 
60.1315

>  <Gold.PLP.PLP>  (468) 
-48.5695

>  <Gold.PLP.ligand.clash>  (468) 
0.0000

>  <Gold.PLP.ligand.torsion>  (468) 
1.0738

>  <Gold.PLP.part.buried>  (468) 
-5.2371

>  <Gold.PLP.part.hbond>  (468) 
-5.5497

>  <Gold.PLP.part.metal>  (468) 
0.0000

>  <Gold.PLP.part.nonpolar>  (468) 
-38.8721

>  <Gold.PLP.part.repulsive>  (468) 
0.3484

>  <Gold.Protein.RotatedAtoms>  (468) 


>  <Gold.Protein.RotatedTorsions>  (468) 


>  <Gold.Protein.RotatedWaterAtoms>  (468) 


>  <Gold.Version>  (468) 
5.3.0

>  <PLP.Chemscore.CHOScore>  (468) 


>  <PLP.Chemscore.Hbond>  (468) 


>  <PLP.Chemscore.Internal.Correction>  (468) 


>  <PLP.Chemscore.Metal>  (468) 


>  <PLP.Fitness>  (468) 


>  <PLP.PLP>  (468) 


>  <PLP.ligand.clash>  (468) 


>  <PLP.ligand.torsion>  (468) 


>  <PLP.part.buried>  (468) 


>  <PLP.part.hbond>  (468) 


>  <PLP.part.metal>  (468) 


>  <PLP.part.nonpolar>  (468) 


>  <PLP.part.repulsive>  (468) 


>  <Version>  (468) 


$$$$
3468|Compound_2125|Compounds_3D_F|sdf|620|dock5|1
     RDKit          3D

 24 26  0  0  0  0  0  0  0  0999 V2000
  -13.3384  -22.6969   13.6557 O   0  0  0  0  0  0  0  0  0  0  0  0
  -12.8900  -22.3445   12.4283 C   0  0  0  0  0  0  0  0  0  0  0  0
  -13.4205  -22.9454   11.2699 C   0  0  0  0  0  0  0  0  0  0  0  0
  -14.3595  -23.8821   11.0485 N   0  0  0  0  0  0  0  0  0  0  0  0
  -14.4836  -24.0932    9.7844 N   0  0  0  0  0  0  0  0  0  0  0  0
  -13.5919  -23.2668    9.0840 N   0  0  0  0  0  0  0  0  0  0  0  0
  -12.9156  -22.5377   10.0221 C   0  0  0  0  0  0  0  0  0  0  0  0
  -11.9657  -21.6093    9.9780 N   0  0  0  0  0  0  0  0  0  0  0  0
  -11.4981  -21.0724   11.0924 C   0  0  0  0  0  0  0  0  0  0  0  0
  -11.9477  -21.4228   12.2900 N   0  0  0  0  0  0  0  0  0  0  0  0
  -10.5052  -20.1054   11.0052 N   0  0  0  0  0  0  0  0  0  0  0  0
  -10.6281  -18.9509   11.6889 C   0  0  0  0  0  0  0  0  0  0  0  0
  -11.6080  -18.7561   12.3821 O   0  0  0  0  0  0  0  0  0  0  0  0
   -9.5729  -17.9229   11.5973 C   0  0  0  0  0  0  0  0  0  0  0  0
   -8.3284  -18.2432   11.0473 C   0  0  0  0  0  0  0  0  0  0  0  0
   -7.3473  -17.2813   10.9655 C   0  0  0  0  0  0  0  0  0  0  0  0
   -7.5923  -15.9935   11.4278 C   0  0  0  0  0  0  0  0  0  0  0  0
   -6.6227  -15.0483   11.3438 O   0  0  0  0  0  0  0  0  0  0  0  0
   -6.7162  -13.9409   12.2426 C   0  0  0  0  0  0  0  0  0  0  0  0
   -7.5133  -12.8137   11.5825 C   0  0  0  0  0  0  0  0  0  0  0  0
   -6.9478  -11.4632   12.0237 C   0  0  0  0  0  0  0  0  0  0  0  0
   -7.9036  -10.3463   11.5988 C   0  0  0  0  0  0  0  0  0  0  0  0
   -8.8286  -15.6707   11.9746 C   0  0  0  0  0  0  0  0  0  0  0  0
   -9.8174  -16.6257   12.0560 C   0  0  0  0  0  0  0  0  0  0  0  0
  1  2  1  0
  2  3  2  0
  2 10  1  0
  3  4  1  0
  3  7  1  0
  4  5  2  0
  5  6  1  0
  6  7  1  0
  7  8  2  0
  8  9  1  0
  9 10  2  0
  9 11  1  0
 11 12  1  0
 12 13  2  0
 12 14  1  0
 14 15  2  0
 14 24  1  0
 15 16  1  0
 16 17  2  0
 17 18  1  0
 17 23  1  0
 18 19  1  0
 19 20  1  0
 20 21  1  0
 21 22  1  0
 23 24  2  0
M  END
>  <Gold.Gold.Protein.RotatedWaterAtoms>  (469) 


>  <Gold.Id.Protein>  (469) 


>  <Gold.PLP.Chemscore.CHOScore>  (469) 
0.0000

>  <Gold.PLP.Chemscore.Hbond>  (469) 
2.8160

>  <Gold.PLP.Chemscore.Internal.Correction>  (469) 
1.1715

>  <Gold.PLP.Chemscore.Metal>  (469) 
0.0000

>  <Gold.PLP.Fitness>  (469) 
50.1867

>  <Gold.PLP.PLP>  (469) 
-43.3897

>  <Gold.PLP.ligand.clash>  (469) 
0.2398

>  <Gold.PLP.ligand.torsion>  (469) 
1.2913

>  <Gold.PLP.part.buried>  (469) 
-3.8768

>  <Gold.PLP.part.hbond>  (469) 
-3.4532

>  <Gold.PLP.part.metal>  (469) 
0.0000

>  <Gold.PLP.part.nonpolar>  (469) 
-35.4234

>  <Gold.PLP.part.repulsive>  (469) 
0.0955

>  <Gold.Protein.RotatedAtoms>  (469) 


>  <Gold.Protein.RotatedTorsions>  (469) 


>  <Gold.Protein.RotatedWaterAtoms>  (469) 


>  <Gold.Version>  (469) 
5.3.0

>  <PLP.Chemscore.CHOScore>  (469) 


>  <PLP.Chemscore.Hbond>  (469) 


>  <PLP.Chemscore.Internal.Correction>  (469) 


>  <PLP.Chemscore.Metal>  (469) 


>  <PLP.Fitness>  (469) 


>  <PLP.PLP>  (469) 


>  <PLP.ligand.clash>  (469) 


>  <PLP.ligand.torsion>  (469) 


>  <PLP.part.buried>  (469) 


>  <PLP.part.hbond>  (469) 


>  <PLP.part.metal>  (469) 


>  <PLP.part.nonpolar>  (469) 


>  <PLP.part.repulsive>  (469) 


>  <Version>  (469) 


$$$$
3469|Compound_2125|Compounds_3D_F|sdf|620|dock6|1
     RDKit          3D

 24 26  0  0  0  0  0  0  0  0999 V2000
  -14.1727  -20.5897   14.1038 O   0  0  0  0  0  0  0  0  0  0  0  0
  -13.3001  -20.8880   13.1131 C   0  0  0  0  0  0  0  0  0  0  0  0
  -13.5299  -21.9849   12.2596 C   0  0  0  0  0  0  0  0  0  0  0  0
  -14.4993  -22.9123   12.1688 N   0  0  0  0  0  0  0  0  0  0  0  0
  -14.2478  -23.7209   11.1989 N   0  0  0  0  0  0  0  0  0  0  0  0
  -13.0470  -23.3451   10.5781 N   0  0  0  0  0  0  0  0  0  0  0  0
  -12.5883  -22.2450   11.2478 C   0  0  0  0  0  0  0  0  0  0  0  0
  -11.5253  -21.4559   11.1317 N   0  0  0  0  0  0  0  0  0  0  0  0
  -11.3513  -20.4368   11.9562 C   0  0  0  0  0  0  0  0  0  0  0  0
  -12.2152  -20.1514   12.9213 N   0  0  0  0  0  0  0  0  0  0  0  0
  -10.2276  -19.6352   11.8033 N   0  0  0  0  0  0  0  0  0  0  0  0
  -10.3326  -18.2978   11.9285 C   0  0  0  0  0  0  0  0  0  0  0  0
  -11.4109  -17.7931   12.1756 O   0  0  0  0  0  0  0  0  0  0  0  0
   -9.1385  -17.4453   11.7669 C   0  0  0  0  0  0  0  0  0  0  0  0
   -9.1623  -16.1167   12.2005 C   0  0  0  0  0  0  0  0  0  0  0  0
   -8.0466  -15.3254   12.0462 C   0  0  0  0  0  0  0  0  0  0  0  0
   -6.8978  -15.8453   11.4611 C   0  0  0  0  0  0  0  0  0  0  0  0
   -5.8001  -15.0621   11.3124 O   0  0  0  0  0  0  0  0  0  0  0  0
   -5.6106  -14.0210   12.2731 C   0  0  0  0  0  0  0  0  0  0  0  0
   -6.4418  -12.8000   11.8731 C   0  0  0  0  0  0  0  0  0  0  0  0
   -5.6988  -11.5244   12.2721 C   0  0  0  0  0  0  0  0  0  0  0  0
   -6.6536  -10.3313   12.1911 C   0  0  0  0  0  0  0  0  0  0  0  0
   -6.8699  -17.1661   11.0294 C   0  0  0  0  0  0  0  0  0  0  0  0
   -7.9800  -17.9661   11.1842 C   0  0  0  0  0  0  0  0  0  0  0  0
  1  2  1  0
  2  3  2  0
  2 10  1  0
  3  4  1  0
  3  7  1  0
  4  5  2  0
  5  6  1  0
  6  7  1  0
  7  8  2  0
  8  9  1  0
  9 10  2  0
  9 11  1  0
 11 12  1  0
 12 13  2  0
 12 14  1  0
 14 15  2  0
 14 24  1  0
 15 16  1  0
 16 17  2  0
 17 18  1  0
 17 23  1  0
 18 19  1  0
 19 20  1  0
 20 21  1  0
 21 22  1  0
 23 24  2  0
M  END
>  <Gold.Gold.Protein.RotatedWaterAtoms>  (470) 


>  <Gold.Id.Protein>  (470) 


>  <Gold.PLP.Chemscore.CHOScore>  (470) 
0.0000

>  <Gold.PLP.Chemscore.Hbond>  (470) 
3.8500

>  <Gold.PLP.Chemscore.Internal.Correction>  (470) 
1.1715

>  <Gold.PLP.Chemscore.Metal>  (470) 
0.0000

>  <Gold.PLP.Fitness>  (470) 
57.6674

>  <Gold.PLP.PLP>  (470) 
-47.4247

>  <Gold.PLP.ligand.clash>  (470) 
0.0919

>  <Gold.PLP.ligand.torsion>  (470) 
1.1934

>  <Gold.PLP.part.buried>  (470) 
-8.0748

>  <Gold.PLP.part.hbond>  (470) 
-5.8409

>  <Gold.PLP.part.metal>  (470) 
0.0000

>  <Gold.PLP.part.nonpolar>  (470) 
-35.1671

>  <Gold.PLP.part.repulsive>  (470) 
0.3801

>  <Gold.Protein.RotatedAtoms>  (470) 


>  <Gold.Protein.RotatedTorsions>  (470) 


>  <Gold.Protein.RotatedWaterAtoms>  (470) 


>  <Gold.Version>  (470) 
5.3.0

>  <PLP.Chemscore.CHOScore>  (470) 


>  <PLP.Chemscore.Hbond>  (470) 


>  <PLP.Chemscore.Internal.Correction>  (470) 


>  <PLP.Chemscore.Metal>  (470) 


>  <PLP.Fitness>  (470) 


>  <PLP.PLP>  (470) 


>  <PLP.ligand.clash>  (470) 


>  <PLP.ligand.torsion>  (470) 


>  <PLP.part.buried>  (470) 


>  <PLP.part.hbond>  (470) 


>  <PLP.part.metal>  (470) 


>  <PLP.part.nonpolar>  (470) 


>  <PLP.part.repulsive>  (470) 


>  <Version>  (470) 


$$$$
3470|Compound_2125|Compounds_3D_F|sdf|620|dock7|1
     RDKit          3D

 24 26  0  0  0  0  0  0  0  0999 V2000
  -14.1097  -20.5127   14.2305 O   0  0  0  0  0  0  0  0  0  0  0  0
  -13.2724  -20.7534   13.1946 C   0  0  0  0  0  0  0  0  0  0  0  0
  -13.5131  -21.8232   12.3103 C   0  0  0  0  0  0  0  0  0  0  0  0
  -14.4646  -22.7693   12.2239 N   0  0  0  0  0  0  0  0  0  0  0  0
  -14.2357  -23.5354   11.2146 N   0  0  0  0  0  0  0  0  0  0  0  0
  -13.0703  -23.1085   10.5602 N   0  0  0  0  0  0  0  0  0  0  0  0
  -12.6086  -22.0234   11.2519 C   0  0  0  0  0  0  0  0  0  0  0  0
  -11.5691  -21.2056   11.1227 N   0  0  0  0  0  0  0  0  0  0  0  0
  -11.3838  -20.2137   11.9774 C   0  0  0  0  0  0  0  0  0  0  0  0
  -12.2130  -19.9847   12.9869 N   0  0  0  0  0  0  0  0  0  0  0  0
  -10.2855  -19.3806   11.8095 N   0  0  0  0  0  0  0  0  0  0  0  0
  -10.4065  -18.0558   12.0230 C   0  0  0  0  0  0  0  0  0  0  0  0
  -11.4771  -17.5900   12.3628 O   0  0  0  0  0  0  0  0  0  0  0  0
   -9.2393  -17.1698   11.8453 C   0  0  0  0  0  0  0  0  0  0  0  0
   -9.3181  -15.8245   12.2162 C   0  0  0  0  0  0  0  0  0  0  0  0
   -8.2273  -15.0021   12.0472 C   0  0  0  0  0  0  0  0  0  0  0  0
   -7.0491  -15.5072   11.5097 C   0  0  0  0  0  0  0  0  0  0  0  0
   -5.9761  -14.6933   11.3463 O   0  0  0  0  0  0  0  0  0  0  0  0
   -5.9227  -13.5187   12.1588 C   0  0  0  0  0  0  0  0  0  0  0  0
   -6.8111  -12.4336   11.5463 C   0  0  0  0  0  0  0  0  0  0  0  0
   -6.4599  -11.0790   12.1625 C   0  0  0  0  0  0  0  0  0  0  0  0
   -7.6012  -10.0917   11.9090 C   0  0  0  0  0  0  0  0  0  0  0  0
   -6.9664  -16.8446   11.1405 C   0  0  0  0  0  0  0  0  0  0  0  0
   -8.0514  -17.6754   11.3104 C   0  0  0  0  0  0  0  0  0  0  0  0
  1  2  1  0
  2  3  2  0
  2 10  1  0
  3  4  1  0
  3  7  1  0
  4  5  2  0
  5  6  1  0
  6  7  1  0
  7  8  2  0
  8  9  1  0
  9 10  2  0
  9 11  1  0
 11 12  1  0
 12 13  2  0
 12 14  1  0
 14 15  2  0
 14 24  1  0
 15 16  1  0
 16 17  2  0
 17 18  1  0
 17 23  1  0
 18 19  1  0
 19 20  1  0
 20 21  1  0
 21 22  1  0
 23 24  2  0
M  END
>  <Gold.Gold.Protein.RotatedWaterAtoms>  (471) 


>  <Gold.Id.Protein>  (471) 


>  <Gold.PLP.Chemscore.CHOScore>  (471) 
0.0000

>  <Gold.PLP.Chemscore.Hbond>  (471) 
3.9500

>  <Gold.PLP.Chemscore.Internal.Correction>  (471) 
1.1715

>  <Gold.PLP.Chemscore.Metal>  (471) 
0.0000

>  <Gold.PLP.Fitness>  (471) 
57.1112

>  <Gold.PLP.PLP>  (471) 
-46.9184

>  <Gold.PLP.ligand.clash>  (471) 
1.0662

>  <Gold.PLP.ligand.torsion>  (471) 
0.8812

>  <Gold.PLP.part.buried>  (471) 
-5.4998

>  <Gold.PLP.part.hbond>  (471) 
-5.9180

>  <Gold.PLP.part.metal>  (471) 
0.0000

>  <Gold.PLP.part.nonpolar>  (471) 
-37.0166

>  <Gold.PLP.part.repulsive>  (471) 
0.4026

>  <Gold.Protein.RotatedAtoms>  (471) 


>  <Gold.Protein.RotatedTorsions>  (471) 


>  <Gold.Protein.RotatedWaterAtoms>  (471) 


>  <Gold.Version>  (471) 
5.3.0

>  <PLP.Chemscore.CHOScore>  (471) 


>  <PLP.Chemscore.Hbond>  (471) 


>  <PLP.Chemscore.Internal.Correction>  (471) 


>  <PLP.Chemscore.Metal>  (471) 


>  <PLP.Fitness>  (471) 


>  <PLP.PLP>  (471) 


>  <PLP.ligand.clash>  (471) 


>  <PLP.ligand.torsion>  (471) 


>  <PLP.part.buried>  (471) 


>  <PLP.part.hbond>  (471) 


>  <PLP.part.metal>  (471) 


>  <PLP.part.nonpolar>  (471) 


>  <PLP.part.repulsive>  (471) 


>  <Version>  (471) 


$$$$
3471|Compound_2125|Compounds_3D_F|sdf|620|dock8|1
     RDKit          3D

 24 26  0  0  0  0  0  0  0  0999 V2000
  -14.1036  -20.5888   14.2962 O   0  0  0  0  0  0  0  0  0  0  0  0
  -13.2825  -20.8254   13.2466 C   0  0  0  0  0  0  0  0  0  0  0  0
  -13.5374  -21.8910   12.3612 C   0  0  0  0  0  0  0  0  0  0  0  0
  -14.4909  -22.8360   12.2850 N   0  0  0  0  0  0  0  0  0  0  0  0
  -14.2779  -23.5976   11.2688 N   0  0  0  0  0  0  0  0  0  0  0  0
  -13.1223  -23.1686   10.5987 N   0  0  0  0  0  0  0  0  0  0  0  0
  -12.6494  -22.0869   11.2883 C   0  0  0  0  0  0  0  0  0  0  0  0
  -11.6113  -21.2693   11.1469 N   0  0  0  0  0  0  0  0  0  0  0  0
  -11.4122  -20.2814   12.0032 C   0  0  0  0  0  0  0  0  0  0  0  0
  -12.2258  -20.0564   13.0263 N   0  0  0  0  0  0  0  0  0  0  0  0
  -10.3159  -19.4484   11.8223 N   0  0  0  0  0  0  0  0  0  0  0  0
  -10.4427  -18.1196   12.0056 C   0  0  0  0  0  0  0  0  0  0  0  0
  -11.5166  -17.6502   12.3295 O   0  0  0  0  0  0  0  0  0  0  0  0
   -9.2777  -17.2335   11.8142 C   0  0  0  0  0  0  0  0  0  0  0  0
   -8.0939  -17.7402   11.2705 C   0  0  0  0  0  0  0  0  0  0  0  0
   -7.0100  -16.9101   11.0953 C   0  0  0  0  0  0  0  0  0  0  0  0
   -7.0912  -15.5705   11.4573 C   0  0  0  0  0  0  0  0  0  0  0  0
   -6.0208  -14.7557   11.2815 O   0  0  0  0  0  0  0  0  0  0  0  0
   -5.9091  -13.6325   12.1582 C   0  0  0  0  0  0  0  0  0  0  0  0
   -6.7738  -12.4854   11.6307 C   0  0  0  0  0  0  0  0  0  0  0  0
   -6.3009  -11.1668   12.2437 C   0  0  0  0  0  0  0  0  0  0  0  0
   -7.2981  -10.0579   11.9004 C   0  0  0  0  0  0  0  0  0  0  0  0
   -8.2668  -15.0626   11.9974 C   0  0  0  0  0  0  0  0  0  0  0  0
   -9.3575  -15.8849   12.1718 C   0  0  0  0  0  0  0  0  0  0  0  0
  1  2  1  0
  2  3  2  0
  2 10  1  0
  3  4  1  0
  3  7  1  0
  4  5  2  0
  5  6  1  0
  6  7  1  0
  7  8  2  0
  8  9  1  0
  9 10  2  0
  9 11  1  0
 11 12  1  0
 12 13  2  0
 12 14  1  0
 14 15  2  0
 14 24  1  0
 15 16  1  0
 16 17  2  0
 17 18  1  0
 17 23  1  0
 18 19  1  0
 19 20  1  0
 20 21  1  0
 21 22  1  0
 23 24  2  0
M  END
>  <Gold.Gold.Protein.RotatedWaterAtoms>  (472) 


>  <Gold.Id.Protein>  (472) 


>  <Gold.PLP.Chemscore.CHOScore>  (472) 
0.0000

>  <Gold.PLP.Chemscore.Hbond>  (472) 
4.9500

>  <Gold.PLP.Chemscore.Internal.Correction>  (472) 
1.1715

>  <Gold.PLP.Chemscore.Metal>  (472) 
0.0000

>  <Gold.PLP.Fitness>  (472) 
61.9561

>  <Gold.PLP.PLP>  (472) 
-47.8529

>  <Gold.PLP.ligand.clash>  (472) 
0.0000

>  <Gold.PLP.ligand.torsion>  (472) 
0.9592

>  <Gold.PLP.part.buried>  (472) 
-5.6689

>  <Gold.PLP.part.hbond>  (472) 
-6.5217

>  <Gold.PLP.part.metal>  (472) 
0.0000

>  <Gold.PLP.part.nonpolar>  (472) 
-37.0934

>  <Gold.PLP.part.repulsive>  (472) 
0.4026

>  <Gold.Protein.RotatedAtoms>  (472) 


>  <Gold.Protein.RotatedTorsions>  (472) 


>  <Gold.Protein.RotatedWaterAtoms>  (472) 


>  <Gold.Version>  (472) 
5.3.0

>  <PLP.Chemscore.CHOScore>  (472) 


>  <PLP.Chemscore.Hbond>  (472) 


>  <PLP.Chemscore.Internal.Correction>  (472) 


>  <PLP.Chemscore.Metal>  (472) 


>  <PLP.Fitness>  (472) 


>  <PLP.PLP>  (472) 


>  <PLP.ligand.clash>  (472) 


>  <PLP.ligand.torsion>  (472) 


>  <PLP.part.buried>  (472) 


>  <PLP.part.hbond>  (472) 


>  <PLP.part.metal>  (472) 


>  <PLP.part.nonpolar>  (472) 


>  <PLP.part.repulsive>  (472) 


>  <Version>  (472) 


$$$$
3472|Compound_2125|Compounds_3D_F|sdf|620|dock9|1
     RDKit          3D

 24 26  0  0  0  0  0  0  0  0999 V2000
  -14.1735  -21.0726   14.3895 O   0  0  0  0  0  0  0  0  0  0  0  0
  -13.4349  -20.8838   13.2711 C   0  0  0  0  0  0  0  0  0  0  0  0
  -13.5742  -21.7444   12.1646 C   0  0  0  0  0  0  0  0  0  0  0  0
  -14.3352  -22.8230   11.9086 N   0  0  0  0  0  0  0  0  0  0  0  0
  -14.0883  -23.2673   10.7256 N   0  0  0  0  0  0  0  0  0  0  0  0
  -13.1094  -22.4643   10.1210 N   0  0  0  0  0  0  0  0  0  0  0  0
  -12.7803  -21.4978   11.0301 C   0  0  0  0  0  0  0  0  0  0  0  0
  -11.9350  -20.4723   11.0397 N   0  0  0  0  0  0  0  0  0  0  0  0
  -11.8386  -19.6904   12.1017 C   0  0  0  0  0  0  0  0  0  0  0  0
  -12.5704  -19.8825   13.1911 N   0  0  0  0  0  0  0  0  0  0  0  0
  -10.9435  -18.6291   12.0736 N   0  0  0  0  0  0  0  0  0  0  0  0
   -9.6990  -18.8107   11.5900 C   0  0  0  0  0  0  0  0  0  0  0  0
   -9.3602  -19.9035   11.1782 O   0  0  0  0  0  0  0  0  0  0  0  0
   -8.7472  -17.6829   11.5591 C   0  0  0  0  0  0  0  0  0  0  0  0
   -7.4145  -17.9006   11.1980 C   0  0  0  0  0  0  0  0  0  0  0  0
   -6.5306  -16.8458   11.1721 C   0  0  0  0  0  0  0  0  0  0  0  0
   -6.9610  -15.5662   11.5033 C   0  0  0  0  0  0  0  0  0  0  0  0
   -6.0866  -14.5294   11.4749 O   0  0  0  0  0  0  0  0  0  0  0  0
   -6.3446  -13.4383   12.3613 C   0  0  0  0  0  0  0  0  0  0  0  0
   -7.3525  -12.4843   11.7166 C   0  0  0  0  0  0  0  0  0  0  0  0
   -6.9832  -11.0416   12.0636 C   0  0  0  0  0  0  0  0  0  0  0  0
   -8.1051  -10.1046   11.6106 C   0  0  0  0  0  0  0  0  0  0  0  0
   -8.2855  -15.3455   11.8621 C   0  0  0  0  0  0  0  0  0  0  0  0
   -9.1776  -16.3942   11.8861 C   0  0  0  0  0  0  0  0  0  0  0  0
  1  2  1  0
  2  3  2  0
  2 10  1  0
  3  4  1  0
  3  7  1  0
  4  5  2  0
  5  6  1  0
  6  7  1  0
  7  8  2  0
  8  9  1  0
  9 10  2  0
  9 11  1  0
 11 12  1  0
 12 13  2  0
 12 14  1  0
 14 15  2  0
 14 24  1  0
 15 16  1  0
 16 17  2  0
 17 18  1  0
 17 23  1  0
 18 19  1  0
 19 20  1  0
 20 21  1  0
 21 22  1  0
 23 24  2  0
M  END
>  <Gold.Gold.Protein.RotatedWaterAtoms>  (473) 


>  <Gold.Id.Protein>  (473) 


>  <Gold.PLP.Chemscore.CHOScore>  (473) 
0.0000

>  <Gold.PLP.Chemscore.Hbond>  (473) 
1.9280

>  <Gold.PLP.Chemscore.Internal.Correction>  (473) 
1.1408

>  <Gold.PLP.Chemscore.Metal>  (473) 
0.0000

>  <Gold.PLP.Fitness>  (473) 
53.6745

>  <Gold.PLP.PLP>  (473) 
-49.0839

>  <Gold.PLP.ligand.clash>  (473) 
0.0000

>  <Gold.PLP.ligand.torsion>  (473) 
1.1671

>  <Gold.PLP.part.buried>  (473) 
-7.7290

>  <Gold.PLP.part.hbond>  (473) 
-2.9183

>  <Gold.PLP.part.metal>  (473) 
0.0000

>  <Gold.PLP.part.nonpolar>  (473) 
-38.9052

>  <Gold.PLP.part.repulsive>  (473) 
0.3395

>  <Gold.Protein.RotatedAtoms>  (473) 


>  <Gold.Protein.RotatedTorsions>  (473) 


>  <Gold.Protein.RotatedWaterAtoms>  (473) 


>  <Gold.Version>  (473) 
5.3.0

>  <PLP.Chemscore.CHOScore>  (473) 


>  <PLP.Chemscore.Hbond>  (473) 


>  <PLP.Chemscore.Internal.Correction>  (473) 


>  <PLP.Chemscore.Metal>  (473) 


>  <PLP.Fitness>  (473) 


>  <PLP.PLP>  (473) 


>  <PLP.ligand.clash>  (473) 


>  <PLP.ligand.torsion>  (473) 


>  <PLP.part.buried>  (473) 


>  <PLP.part.hbond>  (473) 


>  <PLP.part.metal>  (473) 


>  <PLP.part.nonpolar>  (473) 


>  <PLP.part.repulsive>  (473) 


>  <Version>  (473) 


$$$$
3473|Compound_2126|Compounds_3D_F|sdf|621|dock1|1
     RDKit          3D

 29 31  0  0  0  0  0  0  0  0999 V2000
   -8.8841  -21.1209    9.6407 O   0  0  0  0  0  0  0  0  0  0  0  0
   -9.3941  -19.9003    9.9227 C   0  0  0  0  0  0  0  0  0  0  0  0
  -10.7602  -19.6094    9.6746 C   0  0  0  0  0  0  0  0  0  0  0  0
  -11.5899  -20.5147    9.1603 N   0  0  0  0  0  0  0  0  0  0  0  0
  -12.8480  -20.1968    8.9490 C   0  0  0  0  0  0  0  0  0  0  0  0
  -13.3210  -18.9217    9.2578 C   0  0  0  0  0  0  0  0  0  0  0  0
  -12.5188  -18.0117    9.7669 N   0  0  0  0  0  0  0  0  0  0  0  0
  -11.2372  -18.3128    9.9904 C   0  0  0  0  0  0  0  0  0  0  0  0
  -10.3826  -17.4210   10.5064 N   0  0  0  0  0  0  0  0  0  0  0  0
   -9.1218  -17.7458   10.7163 C   0  0  0  0  0  0  0  0  0  0  0  0
   -8.6333  -18.9516   10.4403 N   0  0  0  0  0  0  0  0  0  0  0  0
   -8.2707  -16.7908   11.2526 N   0  0  0  0  0  0  0  0  0  0  0  0
   -8.4557  -15.4864   10.9647 C   0  0  0  0  0  0  0  0  0  0  0  0
   -9.3671  -15.1487   10.2359 O   0  0  0  0  0  0  0  0  0  0  0  0
   -7.5507  -14.4712   11.5346 C   0  0  0  0  0  0  0  0  0  0  0  0
   -6.3923  -14.8646   12.2186 C   0  0  0  0  0  0  0  0  0  0  0  0
   -6.0980  -16.1809   12.3589 O   0  0  0  0  0  0  0  0  0  0  0  0
   -4.7183  -16.5268   12.4930 C   0  0  0  0  0  0  0  0  0  0  0  0
   -4.3948  -17.7036   11.5697 C   0  0  0  0  0  0  0  0  0  0  0  0
   -5.5473  -13.9014   12.7507 C   0  0  0  0  0  0  0  0  0  0  0  0
   -5.8475  -12.5616   12.6057 C   0  0  0  0  0  0  0  0  0  0  0  0
   -6.9923  -12.1679   11.9311 C   0  0  0  0  0  0  0  0  0  0  0  0
   -7.8403  -13.1112   11.3917 C   0  0  0  0  0  0  0  0  0  0  0  0
  -13.7876  -21.2210    8.3665 C   0  0  0  0  0  0  0  0  0  0  0  0
  -15.0996  -20.6643    8.2719 O   0  0  0  0  0  0  0  0  0  0  0  0
  -13.8208  -22.4556    9.2687 C   0  0  0  0  0  0  0  0  0  0  0  0
  -14.5645  -23.4942    8.6278 O   0  0  0  0  0  0  0  0  0  0  0  0
  -14.4861  -22.0983   10.5987 C   0  0  0  0  0  0  0  0  0  0  0  0
  -14.5003  -23.2468   11.4490 O   0  0  0  0  0  0  0  0  0  0  0  0
  1  2  1  0
  2  3  2  0
  2 11  1  0
  3  4  1  0
  3  8  1  0
  4  5  2  0
  5  6  1  0
  5 24  1  0
  6  7  2  0
  7  8  1  0
  8  9  2  0
  9 10  1  0
 10 11  2  0
 10 12  1  0
 12 13  1  0
 13 14  2  0
 13 15  1  0
 15 16  2  0
 15 23  1  0
 16 17  1  0
 16 20  1  0
 17 18  1  0
 18 19  1  0
 20 21  2  0
 21 22  1  0
 22 23  2  0
 24 25  1  0
 24 26  1  0
 26 27  1  0
 26 28  1  0
 28 29  1  0
M  END
>  <Gold.Gold.Protein.RotatedWaterAtoms>  (474) 


>  <Gold.Id.Protein>  (474) 


>  <Gold.PLP.Chemscore.CHOScore>  (474) 
0.0000

>  <Gold.PLP.Chemscore.Hbond>  (474) 
3.0000

>  <Gold.PLP.Chemscore.Internal.Correction>  (474) 
1.6210

>  <Gold.PLP.Chemscore.Metal>  (474) 
0.0000

>  <Gold.PLP.Fitness>  (474) 
69.0886

>  <Gold.PLP.PLP>  (474) 
-63.0836

>  <Gold.PLP.ligand.clash>  (474) 
2.5796

>  <Gold.PLP.ligand.torsion>  (474) 
1.0182

>  <Gold.PLP.part.buried>  (474) 
-11.6502

>  <Gold.PLP.part.hbond>  (474) 
-6.7718

>  <Gold.PLP.part.metal>  (474) 
0.0000

>  <Gold.PLP.part.nonpolar>  (474) 
-45.2463

>  <Gold.PLP.part.repulsive>  (474) 
0.9515

>  <Gold.Protein.RotatedAtoms>  (474) 


>  <Gold.Protein.RotatedTorsions>  (474) 


>  <Gold.Protein.RotatedWaterAtoms>  (474) 


>  <Gold.Version>  (474) 
5.3.0

>  <PLP.Chemscore.CHOScore>  (474) 


>  <PLP.Chemscore.Hbond>  (474) 


>  <PLP.Chemscore.Internal.Correction>  (474) 


>  <PLP.Chemscore.Metal>  (474) 


>  <PLP.Fitness>  (474) 


>  <PLP.PLP>  (474) 


>  <PLP.ligand.clash>  (474) 


>  <PLP.ligand.torsion>  (474) 


>  <PLP.part.buried>  (474) 


>  <PLP.part.hbond>  (474) 


>  <PLP.part.metal>  (474) 


>  <PLP.part.nonpolar>  (474) 


>  <PLP.part.repulsive>  (474) 


>  <Version>  (474) 


$$$$
3474|Compound_2126|Compounds_3D_F|sdf|621|dock2|1
     RDKit          3D

 29 31  0  0  0  0  0  0  0  0999 V2000
   -9.5806  -21.4801   10.7393 O   0  0  0  0  0  0  0  0  0  0  0  0
   -9.9721  -20.1922   10.6068 C   0  0  0  0  0  0  0  0  0  0  0  0
  -11.3142  -19.8716   10.2779 C   0  0  0  0  0  0  0  0  0  0  0  0
  -12.2361  -20.8133   10.0885 N   0  0  0  0  0  0  0  0  0  0  0  0
  -13.4672  -20.4655    9.7856 C   0  0  0  0  0  0  0  0  0  0  0  0
  -13.8162  -19.1210    9.6605 C   0  0  0  0  0  0  0  0  0  0  0  0
  -12.9215  -18.1740    9.8435 N   0  0  0  0  0  0  0  0  0  0  0  0
  -11.6651  -18.5043   10.1525 C   0  0  0  0  0  0  0  0  0  0  0  0
  -10.7196  -17.5770   10.3479 N   0  0  0  0  0  0  0  0  0  0  0  0
   -9.4864  -17.9321   10.6518 C   0  0  0  0  0  0  0  0  0  0  0  0
   -9.1149  -19.2021   10.7851 N   0  0  0  0  0  0  0  0  0  0  0  0
   -8.5382  -16.9384   10.8457 N   0  0  0  0  0  0  0  0  0  0  0  0
   -8.8116  -15.8960   11.6564 C   0  0  0  0  0  0  0  0  0  0  0  0
   -9.8878  -15.8277   12.2159 O   0  0  0  0  0  0  0  0  0  0  0  0
   -7.8036  -14.8396   11.8624 C   0  0  0  0  0  0  0  0  0  0  0  0
   -6.4510  -15.1757   12.0103 C   0  0  0  0  0  0  0  0  0  0  0  0
   -6.0627  -16.4742   11.9640 O   0  0  0  0  0  0  0  0  0  0  0  0
   -4.8346  -16.8079   12.6132 C   0  0  0  0  0  0  0  0  0  0  0  0
   -3.8716  -17.4264   11.5973 C   0  0  0  0  0  0  0  0  0  0  0  0
   -5.5106  -14.1741   12.2032 C   0  0  0  0  0  0  0  0  0  0  0  0
   -5.9072  -12.8523   12.2486 C   0  0  0  0  0  0  0  0  0  0  0  0
   -7.2436  -12.5153   12.1038 C   0  0  0  0  0  0  0  0  0  0  0  0
   -8.1906  -13.4971   11.9062 C   0  0  0  0  0  0  0  0  0  0  0  0
  -14.5111  -21.5310    9.5706 C   0  0  0  0  0  0  0  0  0  0  0  0
  -14.1957  -22.6742   10.3667 O   0  0  0  0  0  0  0  0  0  0  0  0
  -14.5385  -21.9290    8.0941 C   0  0  0  0  0  0  0  0  0  0  0  0
  -15.0265  -20.8349    7.3148 O   0  0  0  0  0  0  0  0  0  0  0  0
  -15.4572  -23.1374    7.9079 C   0  0  0  0  0  0  0  0  0  0  0  0
  -16.6406  -22.7352    7.2150 O   0  0  0  0  0  0  0  0  0  0  0  0
  1  2  1  0
  2  3  2  0
  2 11  1  0
  3  4  1  0
  3  8  1  0
  4  5  2  0
  5  6  1  0
  5 24  1  0
  6  7  2  0
  7  8  1  0
  8  9  2  0
  9 10  1  0
 10 11  2  0
 10 12  1  0
 12 13  1  0
 13 14  2  0
 13 15  1  0
 15 16  2  0
 15 23  1  0
 16 17  1  0
 16 20  1  0
 17 18  1  0
 18 19  1  0
 20 21  2  0
 21 22  1  0
 22 23  2  0
 24 25  1  0
 24 26  1  0
 26 27  1  0
 26 28  1  0
 28 29  1  0
M  END
>  <Gold.Gold.Protein.RotatedWaterAtoms>  (475) 


>  <Gold.Id.Protein>  (475) 


>  <Gold.PLP.Chemscore.CHOScore>  (475) 
0.0000

>  <Gold.PLP.Chemscore.Hbond>  (475) 
3.5500

>  <Gold.PLP.Chemscore.Internal.Correction>  (475) 
1.6139

>  <Gold.PLP.Chemscore.Metal>  (475) 
0.0000

>  <Gold.PLP.Fitness>  (475) 
73.8272

>  <Gold.PLP.PLP>  (475) 
-68.3210

>  <Gold.PLP.ligand.clash>  (475) 
0.1908

>  <Gold.PLP.ligand.torsion>  (475) 
3.2835

>  <Gold.PLP.part.buried>  (475) 
-12.8708

>  <Gold.PLP.part.hbond>  (475) 
-5.9330

>  <Gold.PLP.part.metal>  (475) 
0.0000

>  <Gold.PLP.part.nonpolar>  (475) 
-50.0332

>  <Gold.PLP.part.repulsive>  (475) 
0.1469

>  <Gold.Protein.RotatedAtoms>  (475) 


>  <Gold.Protein.RotatedTorsions>  (475) 


>  <Gold.Protein.RotatedWaterAtoms>  (475) 


>  <Gold.Version>  (475) 
5.3.0

>  <PLP.Chemscore.CHOScore>  (475) 


>  <PLP.Chemscore.Hbond>  (475) 


>  <PLP.Chemscore.Internal.Correction>  (475) 


>  <PLP.Chemscore.Metal>  (475) 


>  <PLP.Fitness>  (475) 


>  <PLP.PLP>  (475) 


>  <PLP.ligand.clash>  (475) 


>  <PLP.ligand.torsion>  (475) 


>  <PLP.part.buried>  (475) 


>  <PLP.part.hbond>  (475) 


>  <PLP.part.metal>  (475) 


>  <PLP.part.nonpolar>  (475) 


>  <PLP.part.repulsive>  (475) 


>  <Version>  (475) 


$$$$
3475|Compound_2126|Compounds_3D_F|sdf|621|dock3|1
     RDKit          3D

 29 31  0  0  0  0  0  0  0  0999 V2000
   -9.6670  -21.5336   10.6449 O   0  0  0  0  0  0  0  0  0  0  0  0
  -10.0609  -20.2463   10.7764 C   0  0  0  0  0  0  0  0  0  0  0  0
  -11.3970  -19.8635   10.4923 C   0  0  0  0  0  0  0  0  0  0  0  0
  -12.3105  -20.7442   10.0895 N   0  0  0  0  0  0  0  0  0  0  0  0
  -13.5362  -20.3401    9.8390 C   0  0  0  0  0  0  0  0  0  0  0  0
  -13.8881  -18.9991    9.9905 C   0  0  0  0  0  0  0  0  0  0  0  0
  -13.0016  -18.1118   10.3876 N   0  0  0  0  0  0  0  0  0  0  0  0
  -11.7509  -18.5000   10.6483 C   0  0  0  0  0  0  0  0  0  0  0  0
  -10.8138  -17.6346   11.0545 N   0  0  0  0  0  0  0  0  0  0  0  0
   -9.5860  -18.0460   11.3045 C   0  0  0  0  0  0  0  0  0  0  0  0
   -9.2120  -19.3159   11.1771 N   0  0  0  0  0  0  0  0  0  0  0  0
   -8.6464  -17.1154   11.7232 N   0  0  0  0  0  0  0  0  0  0  0  0
   -8.6648  -15.8656   11.2171 C   0  0  0  0  0  0  0  0  0  0  0  0
   -9.5038  -15.5557   10.3949 O   0  0  0  0  0  0  0  0  0  0  0  0
   -7.6659  -14.8764   11.6621 C   0  0  0  0  0  0  0  0  0  0  0  0
   -6.4373  -15.3024   12.1853 C   0  0  0  0  0  0  0  0  0  0  0  0
   -6.1614  -16.6264   12.2843 O   0  0  0  0  0  0  0  0  0  0  0  0
   -4.8516  -16.9849   12.7283 C   0  0  0  0  0  0  0  0  0  0  0  0
   -3.8396  -16.7000   11.6163 C   0  0  0  0  0  0  0  0  0  0  0  0
   -5.5042  -14.3635   12.6007 C   0  0  0  0  0  0  0  0  0  0  0  0
   -5.7859  -13.0158   12.4979 C   0  0  0  0  0  0  0  0  0  0  0  0
   -6.9997  -12.5899   11.9821 C   0  0  0  0  0  0  0  0  0  0  0  0
   -7.9363  -13.5088   11.5598 C   0  0  0  0  0  0  0  0  0  0  0  0
  -14.5707  -21.3365    9.3825 C   0  0  0  0  0  0  0  0  0  0  0  0
  -14.6263  -22.4230   10.3080 O   0  0  0  0  0  0  0  0  0  0  0  0
  -14.1950  -21.8648    7.9973 C   0  0  0  0  0  0  0  0  0  0  0  0
  -14.2767  -20.8030    7.0442 O   0  0  0  0  0  0  0  0  0  0  0  0
  -15.1590  -22.9831    7.5985 C   0  0  0  0  0  0  0  0  0  0  0  0
  -16.4004  -22.4152    7.1757 O   0  0  0  0  0  0  0  0  0  0  0  0
  1  2  1  0
  2  3  2  0
  2 11  1  0
  3  4  1  0
  3  8  1  0
  4  5  2  0
  5  6  1  0
  5 24  1  0
  6  7  2  0
  7  8  1  0
  8  9  2  0
  9 10  1  0
 10 11  2  0
 10 12  1  0
 12 13  1  0
 13 14  2  0
 13 15  1  0
 15 16  2  0
 15 23  1  0
 16 17  1  0
 16 20  1  0
 17 18  1  0
 18 19  1  0
 20 21  2  0
 21 22  1  0
 22 23  2  0
 24 25  1  0
 24 26  1  0
 26 27  1  0
 26 28  1  0
 28 29  1  0
M  END
>  <Gold.Gold.Protein.RotatedWaterAtoms>  (476) 


>  <Gold.Id.Protein>  (476) 


>  <Gold.PLP.Chemscore.CHOScore>  (476) 
0.0000

>  <Gold.PLP.Chemscore.Hbond>  (476) 
3.2968

>  <Gold.PLP.Chemscore.Internal.Correction>  (476) 
1.5984

>  <Gold.PLP.Chemscore.Metal>  (476) 
0.0000

>  <Gold.PLP.Fitness>  (476) 
74.1142

>  <Gold.PLP.PLP>  (476) 
-65.9338

>  <Gold.PLP.ligand.clash>  (476) 
1.6425

>  <Gold.PLP.ligand.torsion>  (476) 
0.8329

>  <Gold.PLP.part.buried>  (476) 
-9.3991

>  <Gold.PLP.part.hbond>  (476) 
-6.6582

>  <Gold.PLP.part.metal>  (476) 
0.0000

>  <Gold.PLP.part.nonpolar>  (476) 
-50.6052

>  <Gold.PLP.part.repulsive>  (476) 
0.2151

>  <Gold.Protein.RotatedAtoms>  (476) 


>  <Gold.Protein.RotatedTorsions>  (476) 


>  <Gold.Protein.RotatedWaterAtoms>  (476) 


>  <Gold.Version>  (476) 
5.3.0

>  <PLP.Chemscore.CHOScore>  (476) 


>  <PLP.Chemscore.Hbond>  (476) 


>  <PLP.Chemscore.Internal.Correction>  (476) 


>  <PLP.Chemscore.Metal>  (476) 


>  <PLP.Fitness>  (476) 


>  <PLP.PLP>  (476) 


>  <PLP.ligand.clash>  (476) 


>  <PLP.ligand.torsion>  (476) 


>  <PLP.part.buried>  (476) 


>  <PLP.part.hbond>  (476) 


>  <PLP.part.metal>  (476) 


>  <PLP.part.nonpolar>  (476) 


>  <PLP.part.repulsive>  (476) 


>  <Version>  (476) 


$$$$
3476|Compound_2126|Compounds_3D_F|sdf|621|dock4|1
     RDKit          3D

 29 31  0  0  0  0  0  0  0  0999 V2000
   -9.4487  -20.6343    9.8789 O   0  0  0  0  0  0  0  0  0  0  0  0
  -10.0229  -19.6169   10.5605 C   0  0  0  0  0  0  0  0  0  0  0  0
  -11.4162  -19.6167   10.8270 C   0  0  0  0  0  0  0  0  0  0  0  0
  -12.2096  -20.6066   10.4232 N   0  0  0  0  0  0  0  0  0  0  0  0
  -13.4951  -20.5608   10.6951 C   0  0  0  0  0  0  0  0  0  0  0  0
  -14.0349  -19.4861   11.4013 C   0  0  0  0  0  0  0  0  0  0  0  0
  -13.2694  -18.4972   11.8100 N   0  0  0  0  0  0  0  0  0  0  0  0
  -11.9609  -18.5233   11.5455 C   0  0  0  0  0  0  0  0  0  0  0  0
  -11.1417  -17.5408   11.9401 N   0  0  0  0  0  0  0  0  0  0  0  0
   -9.8530  -17.5925   11.6645 C   0  0  0  0  0  0  0  0  0  0  0  0
   -9.2990  -18.6015   10.9984 N   0  0  0  0  0  0  0  0  0  0  0  0
   -9.0405  -16.5529   12.0924 N   0  0  0  0  0  0  0  0  0  0  0  0
   -8.4919  -15.7126   11.1915 C   0  0  0  0  0  0  0  0  0  0  0  0
   -8.7094  -15.8667   10.0062 O   0  0  0  0  0  0  0  0  0  0  0  0
   -7.6279  -14.6076   11.6463 C   0  0  0  0  0  0  0  0  0  0  0  0
   -6.3365  -14.8731   12.1219 C   0  0  0  0  0  0  0  0  0  0  0  0
   -5.8752  -16.1476   12.1655 O   0  0  0  0  0  0  0  0  0  0  0  0
   -4.4583  -16.3266   12.1290 C   0  0  0  0  0  0  0  0  0  0  0  0
   -4.1355  -17.7583   11.6951 C   0  0  0  0  0  0  0  0  0  0  0  0
   -5.5315  -13.8262   12.5471 C   0  0  0  0  0  0  0  0  0  0  0  0
   -6.0019  -12.5289   12.5007 C   0  0  0  0  0  0  0  0  0  0  0  0
   -7.2785  -12.2617   12.0321 C   0  0  0  0  0  0  0  0  0  0  0  0
   -8.0899  -13.2891   11.6010 C   0  0  0  0  0  0  0  0  0  0  0  0
  -14.3938  -21.6809   10.2379 C   0  0  0  0  0  0  0  0  0  0  0  0
  -13.9072  -22.9217   10.7514 O   0  0  0  0  0  0  0  0  0  0  0  0
  -14.4095  -21.7319    8.7095 C   0  0  0  0  0  0  0  0  0  0  0  0
  -15.0782  -20.5758    8.2009 O   0  0  0  0  0  0  0  0  0  0  0  0
  -15.1454  -22.9908    8.2481 C   0  0  0  0  0  0  0  0  0  0  0  0
  -16.0751  -22.6497    7.2178 O   0  0  0  0  0  0  0  0  0  0  0  0
  1  2  1  0
  2  3  2  0
  2 11  1  0
  3  4  1  0
  3  8  1  0
  4  5  2  0
  5  6  1  0
  5 24  1  0
  6  7  2  0
  7  8  1  0
  8  9  2  0
  9 10  1  0
 10 11  2  0
 10 12  1  0
 12 13  1  0
 13 14  2  0
 13 15  1  0
 15 16  2  0
 15 23  1  0
 16 17  1  0
 16 20  1  0
 17 18  1  0
 18 19  1  0
 20 21  2  0
 21 22  1  0
 22 23  2  0
 24 25  1  0
 24 26  1  0
 26 27  1  0
 26 28  1  0
 28 29  1  0
M  END
>  <Gold.Gold.Protein.RotatedWaterAtoms>  (477) 


>  <Gold.Id.Protein>  (477) 


>  <Gold.PLP.Chemscore.CHOScore>  (477) 
1.0000

>  <Gold.PLP.Chemscore.Hbond>  (477) 
4.0609

>  <Gold.PLP.Chemscore.Internal.Correction>  (477) 
1.5984

>  <Gold.PLP.Chemscore.Metal>  (477) 
0.0000

>  <Gold.PLP.Fitness>  (477) 
71.1530

>  <Gold.PLP.PLP>  (477) 
-60.8233

>  <Gold.PLP.ligand.clash>  (477) 
0.0000

>  <Gold.PLP.ligand.torsion>  (477) 
3.2257

>  <Gold.PLP.part.buried>  (477) 
-8.7576

>  <Gold.PLP.part.hbond>  (477) 
-6.2255

>  <Gold.PLP.part.metal>  (477) 
0.0000

>  <Gold.PLP.part.nonpolar>  (477) 
-46.5034

>  <Gold.PLP.part.repulsive>  (477) 
0.3820

>  <Gold.Protein.RotatedAtoms>  (477) 


>  <Gold.Protein.RotatedTorsions>  (477) 


>  <Gold.Protein.RotatedWaterAtoms>  (477) 


>  <Gold.Version>  (477) 
5.3.0

>  <PLP.Chemscore.CHOScore>  (477) 


>  <PLP.Chemscore.Hbond>  (477) 


>  <PLP.Chemscore.Internal.Correction>  (477) 


>  <PLP.Chemscore.Metal>  (477) 


>  <PLP.Fitness>  (477) 


>  <PLP.PLP>  (477) 


>  <PLP.ligand.clash>  (477) 


>  <PLP.ligand.torsion>  (477) 


>  <PLP.part.buried>  (477) 


>  <PLP.part.hbond>  (477) 


>  <PLP.part.metal>  (477) 


>  <PLP.part.nonpolar>  (477) 


>  <PLP.part.repulsive>  (477) 


>  <Version>  (477) 


$$$$
3477|Compound_2127|Compounds_3D_F|sdf|622|dock1|1
     RDKit          3D

 21 22  0  0  0  0  0  0  0  0999 V2000
   -8.6285  -15.6870   12.2302 N   0  0  0  0  0  0  0  0  0  0  0  0
   -8.8812  -14.3655   12.1472 C   0  0  0  0  0  0  0  0  0  0  0  0
  -10.0269  -13.9707   12.0577 O   0  0  0  0  0  0  0  0  0  0  0  0
   -7.7670  -13.3994   12.1652 C   0  0  0  0  0  0  0  0  0  0  0  0
   -6.4567  -13.8394   12.3939 C   0  0  0  0  0  0  0  0  0  0  0  0
   -6.2061  -15.1563   12.5989 O   0  0  0  0  0  0  0  0  0  0  0  0
   -4.9052  -15.6327   12.2449 C   0  0  0  0  0  0  0  0  0  0  0  0
   -4.8005  -17.1228   12.5750 C   0  0  0  0  0  0  0  0  0  0  0  0
   -5.4162  -12.9215   12.4086 C   0  0  0  0  0  0  0  0  0  0  0  0
   -5.6721  -11.5818   12.1978 C   0  0  0  0  0  0  0  0  0  0  0  0
   -6.9671  -11.1424   11.9720 C   0  0  0  0  0  0  0  0  0  0  0  0
   -8.0113  -12.0398   11.9490 C   0  0  0  0  0  0  0  0  0  0  0  0
   -9.6809  -16.6010   12.2081 C   0  0  0  0  0  0  0  0  0  0  0  0
  -10.8930  -16.4139   12.6596 N   0  0  0  0  0  0  0  0  0  0  0  0
  -11.5815  -17.3948   12.4981 O   0  0  0  0  0  0  0  0  0  0  0  0
  -10.9030  -18.3868   11.9045 C   0  0  0  0  0  0  0  0  0  0  0  0
   -9.6514  -17.9217   11.6852 C   0  0  0  0  0  0  0  0  0  0  0  0
  -11.4314  -19.7515   11.5452 C   0  0  0  0  0  0  0  0  0  0  0  0
  -12.5866  -19.6068   10.5533 C   0  0  0  0  0  0  0  0  0  0  0  0
  -10.3123  -20.5789   10.9074 C   0  0  0  0  0  0  0  0  0  0  0  0
  -11.9283  -20.4553   12.8087 C   0  0  0  0  0  0  0  0  0  0  0  0
  1  2  1  0
  1 13  1  0
  2  3  2  0
  2  4  1  0
  4  5  2  0
  4 12  1  0
  5  6  1  0
  5  9  1  0
  6  7  1  0
  7  8  1  0
  9 10  2  0
 10 11  1  0
 11 12  2  0
 13 14  2  0
 13 17  1  0
 14 15  1  0
 15 16  1  0
 16 17  2  0
 16 18  1  0
 18 19  1  0
 18 20  1  0
 18 21  1  0
M  END
>  <Gold.Gold.Protein.RotatedWaterAtoms>  (478) 


>  <Gold.Id.Protein>  (478) 


>  <Gold.PLP.Chemscore.CHOScore>  (478) 
0.0000

>  <Gold.PLP.Chemscore.Hbond>  (478) 
2.2740

>  <Gold.PLP.Chemscore.Internal.Correction>  (478) 
0.7582

>  <Gold.PLP.Chemscore.Metal>  (478) 
0.0000

>  <Gold.PLP.Fitness>  (478) 
65.2828

>  <Gold.PLP.PLP>  (478) 
-58.8800

>  <Gold.PLP.ligand.clash>  (478) 
0.0000

>  <Gold.PLP.ligand.torsion>  (478) 
0.5888

>  <Gold.PLP.part.buried>  (478) 
-7.2445

>  <Gold.PLP.part.hbond>  (478) 
-5.4692

>  <Gold.PLP.part.metal>  (478) 
0.0000

>  <Gold.PLP.part.nonpolar>  (478) 
-47.4419

>  <Gold.PLP.part.repulsive>  (478) 
0.5548

>  <Gold.Protein.RotatedAtoms>  (478) 


>  <Gold.Protein.RotatedTorsions>  (478) 


>  <Gold.Protein.RotatedWaterAtoms>  (478) 


>  <Gold.Version>  (478) 
5.3.0

>  <PLP.Chemscore.CHOScore>  (478) 


>  <PLP.Chemscore.Hbond>  (478) 


>  <PLP.Chemscore.Internal.Correction>  (478) 


>  <PLP.Chemscore.Metal>  (478) 


>  <PLP.Fitness>  (478) 


>  <PLP.PLP>  (478) 


>  <PLP.ligand.clash>  (478) 


>  <PLP.ligand.torsion>  (478) 


>  <PLP.part.buried>  (478) 


>  <PLP.part.hbond>  (478) 


>  <PLP.part.metal>  (478) 


>  <PLP.part.nonpolar>  (478) 


>  <PLP.part.repulsive>  (478) 


>  <Version>  (478) 


$$$$
3478|Compound_2127|Compounds_3D_F|sdf|622|dock2|1
     RDKit          3D

 21 22  0  0  0  0  0  0  0  0999 V2000
   -8.8940  -15.9633   12.0666 N   0  0  0  0  0  0  0  0  0  0  0  0
   -9.0525  -14.6431   12.2878 C   0  0  0  0  0  0  0  0  0  0  0  0
  -10.1609  -14.1912   12.4973 O   0  0  0  0  0  0  0  0  0  0  0  0
   -7.8807  -13.7477   12.2756 C   0  0  0  0  0  0  0  0  0  0  0  0
   -6.5872  -14.2791   12.3613 C   0  0  0  0  0  0  0  0  0  0  0  0
   -6.4061  -15.6198   12.4548 O   0  0  0  0  0  0  0  0  0  0  0  0
   -5.0569  -16.0922   12.4884 C   0  0  0  0  0  0  0  0  0  0  0  0
   -5.0162  -17.5522   12.0333 C   0  0  0  0  0  0  0  0  0  0  0  0
   -5.4920  -13.4271   12.3488 C   0  0  0  0  0  0  0  0  0  0  0  0
   -5.6774  -12.0630   12.2515 C   0  0  0  0  0  0  0  0  0  0  0  0
   -6.9555  -11.5334   12.1674 C   0  0  0  0  0  0  0  0  0  0  0  0
   -8.0536  -12.3640   12.1732 C   0  0  0  0  0  0  0  0  0  0  0  0
  -10.0019  -16.8095   12.0730 C   0  0  0  0  0  0  0  0  0  0  0  0
  -11.1690  -16.5710   12.6105 N   0  0  0  0  0  0  0  0  0  0  0  0
  -11.9274  -17.4992   12.4511 O   0  0  0  0  0  0  0  0  0  0  0  0
  -11.3520  -18.5009   11.7713 C   0  0  0  0  0  0  0  0  0  0  0  0
  -10.0894  -18.1028   11.4915 C   0  0  0  0  0  0  0  0  0  0  0  0
  -11.9878  -19.8121   11.3874 C   0  0  0  0  0  0  0  0  0  0  0  0
  -11.3322  -20.9474   12.1753 C   0  0  0  0  0  0  0  0  0  0  0  0
  -13.4838  -19.7659   11.7091 C   0  0  0  0  0  0  0  0  0  0  0  0
  -11.7962  -20.0531    9.8894 C   0  0  0  0  0  0  0  0  0  0  0  0
  1  2  1  0
  1 13  1  0
  2  3  2  0
  2  4  1  0
  4  5  2  0
  4 12  1  0
  5  6  1  0
  5  9  1  0
  6  7  1  0
  7  8  1  0
  9 10  2  0
 10 11  1  0
 11 12  2  0
 13 14  2  0
 13 17  1  0
 14 15  1  0
 15 16  1  0
 16 17  2  0
 16 18  1  0
 18 19  1  0
 18 20  1  0
 18 21  1  0
M  END
>  <Gold.Gold.Protein.RotatedWaterAtoms>  (479) 


>  <Gold.Id.Protein>  (479) 


>  <Gold.PLP.Chemscore.CHOScore>  (479) 
0.0000

>  <Gold.PLP.Chemscore.Hbond>  (479) 
2.0511

>  <Gold.PLP.Chemscore.Internal.Correction>  (479) 
0.7156

>  <Gold.PLP.Chemscore.Metal>  (479) 
0.0000

>  <Gold.PLP.Fitness>  (479) 
57.5883

>  <Gold.PLP.PLP>  (479) 
-53.4318

>  <Gold.PLP.ligand.clash>  (479) 
1.6589

>  <Gold.PLP.ligand.torsion>  (479) 
0.5267

>  <Gold.PLP.part.buried>  (479) 
-1.8189

>  <Gold.PLP.part.hbond>  (479) 
-6.3102

>  <Gold.PLP.part.metal>  (479) 
0.0000

>  <Gold.PLP.part.nonpolar>  (479) 
-45.5799

>  <Gold.PLP.part.repulsive>  (479) 
0.4899

>  <Gold.Protein.RotatedAtoms>  (479) 


>  <Gold.Protein.RotatedTorsions>  (479) 


>  <Gold.Protein.RotatedWaterAtoms>  (479) 


>  <Gold.Version>  (479) 
5.3.0

>  <PLP.Chemscore.CHOScore>  (479) 


>  <PLP.Chemscore.Hbond>  (479) 


>  <PLP.Chemscore.Internal.Correction>  (479) 


>  <PLP.Chemscore.Metal>  (479) 


>  <PLP.Fitness>  (479) 


>  <PLP.PLP>  (479) 


>  <PLP.ligand.clash>  (479) 


>  <PLP.ligand.torsion>  (479) 


>  <PLP.part.buried>  (479) 


>  <PLP.part.hbond>  (479) 


>  <PLP.part.metal>  (479) 


>  <PLP.part.nonpolar>  (479) 


>  <PLP.part.repulsive>  (479) 


>  <Version>  (479) 


$$$$
3479|Compound_2127|Compounds_3D_F|sdf|622|dock3|1
     RDKit          3D

 21 22  0  0  0  0  0  0  0  0999 V2000
   -8.4767  -16.0268   12.0551 N   0  0  0  0  0  0  0  0  0  0  0  0
   -8.7951  -14.7226   11.9334 C   0  0  0  0  0  0  0  0  0  0  0  0
   -9.9495  -14.3945   11.7431 O   0  0  0  0  0  0  0  0  0  0  0  0
   -7.7422  -13.6946   12.0316 C   0  0  0  0  0  0  0  0  0  0  0  0
   -6.4201  -14.0647   12.3108 C   0  0  0  0  0  0  0  0  0  0  0  0
   -6.1017  -15.3705   12.4913 O   0  0  0  0  0  0  0  0  0  0  0  0
   -4.7427  -15.7465   12.2534 C   0  0  0  0  0  0  0  0  0  0  0  0
   -4.5796  -17.2485   12.4941 C   0  0  0  0  0  0  0  0  0  0  0  0
   -5.4376  -13.0889   12.4008 C   0  0  0  0  0  0  0  0  0  0  0  0
   -5.7625  -11.7606   12.2148 C   0  0  0  0  0  0  0  0  0  0  0  0
   -7.0694  -11.3903   11.9392 C   0  0  0  0  0  0  0  0  0  0  0  0
   -8.0563  -12.3455   11.8413 C   0  0  0  0  0  0  0  0  0  0  0  0
   -9.4708  -16.9994   11.9574 C   0  0  0  0  0  0  0  0  0  0  0  0
  -10.7379  -16.8587   12.2447 N   0  0  0  0  0  0  0  0  0  0  0  0
  -11.3504  -17.8843   12.0575 O   0  0  0  0  0  0  0  0  0  0  0  0
  -10.5537  -18.8654   11.6109 C   0  0  0  0  0  0  0  0  0  0  0  0
   -9.3094  -18.3415   11.5203 C   0  0  0  0  0  0  0  0  0  0  0  0
  -10.9634  -20.2749   11.2699 C   0  0  0  0  0  0  0  0  0  0  0  0
  -11.9928  -20.2478   10.1389 C   0  0  0  0  0  0  0  0  0  0  0  0
   -9.7334  -21.0681   10.8210 C   0  0  0  0  0  0  0  0  0  0  0  0
  -11.5766  -20.9406   12.5027 C   0  0  0  0  0  0  0  0  0  0  0  0
  1  2  1  0
  1 13  1  0
  2  3  2  0
  2  4  1  0
  4  5  2  0
  4 12  1  0
  5  6  1  0
  5  9  1  0
  6  7  1  0
  7  8  1  0
  9 10  2  0
 10 11  1  0
 11 12  2  0
 13 14  2  0
 13 17  1  0
 14 15  1  0
 15 16  1  0
 16 17  2  0
 16 18  1  0
 18 19  1  0
 18 20  1  0
 18 21  1  0
M  END
>  <Gold.Gold.Protein.RotatedWaterAtoms>  (480) 


>  <Gold.Id.Protein>  (480) 


>  <Gold.PLP.Chemscore.CHOScore>  (480) 
0.0000

>  <Gold.PLP.Chemscore.Hbond>  (480) 
1.0319

>  <Gold.PLP.Chemscore.Internal.Correction>  (480) 
0.7156

>  <Gold.PLP.Chemscore.Metal>  (480) 
0.0000

>  <Gold.PLP.Fitness>  (480) 
60.0647

>  <Gold.PLP.PLP>  (480) 
-57.2661

>  <Gold.PLP.ligand.clash>  (480) 
0.0000

>  <Gold.PLP.ligand.torsion>  (480) 
0.5063

>  <Gold.PLP.part.buried>  (480) 
-9.5795

>  <Gold.PLP.part.hbond>  (480) 
-2.1586

>  <Gold.PLP.part.metal>  (480) 
0.0000

>  <Gold.PLP.part.nonpolar>  (480) 
-45.2338

>  <Gold.PLP.part.repulsive>  (480) 
0.4100

>  <Gold.Protein.RotatedAtoms>  (480) 


>  <Gold.Protein.RotatedTorsions>  (480) 


>  <Gold.Protein.RotatedWaterAtoms>  (480) 


>  <Gold.Version>  (480) 
5.3.0

>  <PLP.Chemscore.CHOScore>  (480) 


>  <PLP.Chemscore.Hbond>  (480) 


>  <PLP.Chemscore.Internal.Correction>  (480) 


>  <PLP.Chemscore.Metal>  (480) 


>  <PLP.Fitness>  (480) 


>  <PLP.PLP>  (480) 


>  <PLP.ligand.clash>  (480) 


>  <PLP.ligand.torsion>  (480) 


>  <PLP.part.buried>  (480) 


>  <PLP.part.hbond>  (480) 


>  <PLP.part.metal>  (480) 


>  <PLP.part.nonpolar>  (480) 


>  <PLP.part.repulsive>  (480) 


>  <Version>  (480) 


$$$$
3480|Compound_2128|Compounds_3D_F|sdf|623|dock1|1
     RDKit          3D

 39 43  0  0  0  0  0  0  0  0999 V2000
  -12.5834  -18.1628    9.9619 O   0  0  0  0  0  0  0  0  0  0  0  0
  -11.3283  -18.5030   10.3423 C   0  0  0  0  0  0  0  0  0  0  0  0
  -10.8988  -19.8372   10.2808 C   0  0  0  0  0  0  0  0  0  0  0  0
  -11.4716  -21.0058    9.8976 N   0  0  0  0  0  0  0  0  0  0  0  0
  -10.6162  -21.9749   10.0403 C   0  0  0  0  0  0  0  0  0  0  0  0
   -9.4371  -21.4888   10.5256 N   0  0  0  0  0  0  0  0  0  0  0  0
   -9.5859  -20.1341   10.6877 C   0  0  0  0  0  0  0  0  0  0  0  0
   -8.8028  -19.1502   11.1145 N   0  0  0  0  0  0  0  0  0  0  0  0
   -9.2502  -17.9061   11.1565 C   0  0  0  0  0  0  0  0  0  0  0  0
  -10.4793  -17.5816   10.7765 N   0  0  0  0  0  0  0  0  0  0  0  0
   -8.4015  -16.9033   11.6094 N   0  0  0  0  0  0  0  0  0  0  0  0
   -8.5126  -15.6539   11.1178 C   0  0  0  0  0  0  0  0  0  0  0  0
   -9.3556  -15.4035   10.2780 O   0  0  0  0  0  0  0  0  0  0  0  0
   -7.6115  -14.5894   11.5977 C   0  0  0  0  0  0  0  0  0  0  0  0
   -6.3455  -14.9122   12.1050 C   0  0  0  0  0  0  0  0  0  0  0  0
   -5.9429  -16.2067   12.1581 O   0  0  0  0  0  0  0  0  0  0  0  0
   -4.5345  -16.4480   12.1654 C   0  0  0  0  0  0  0  0  0  0  0  0
   -4.2709  -17.9357   11.9229 C   0  0  0  0  0  0  0  0  0  0  0  0
   -5.5064  -13.9029   12.5532 C   0  0  0  0  0  0  0  0  0  0  0  0
   -5.9183  -12.5860   12.4981 C   0  0  0  0  0  0  0  0  0  0  0  0
   -7.1686  -12.2620   11.9961 C   0  0  0  0  0  0  0  0  0  0  0  0
   -8.0130  -13.2514   11.5418 C   0  0  0  0  0  0  0  0  0  0  0  0
   -8.2322  -22.2692   10.8192 C   0  0  0  0  0  0  0  0  0  0  0  0
   -7.8399  -23.0226    9.6515 O   0  0  0  0  0  0  0  0  0  0  0  0
   -7.7524  -24.3907   10.0109 C   0  0  0  0  0  0  0  0  0  0  0  0
   -8.0206  -25.4132    8.9270 C   0  0  0  0  0  0  0  0  0  0  0  0
   -7.7300  -26.7123    9.4955 O   0  0  0  0  0  0  0  0  0  0  0  0
   -8.3547  -27.1321   10.9336 P   0  0  0  0  0  0  0  0  0  0  0  0
   -7.4837  -28.1317   11.5910 O   0  0  0  0  0  0  0  0  0  0  0  0
   -9.8328  -27.7368   10.7359 O   0  0  0  0  0  0  0  0  0  0  0  0
   -8.4217  -25.7734   11.8348 O   0  0  0  0  0  0  0  0  0  0  0  0
   -8.7994  -24.5719   11.1423 C   0  0  0  0  0  0  0  0  0  0  0  0
   -8.5266  -23.2864   11.9539 C   0  0  0  0  0  0  0  0  0  0  0  0
   -9.6948  -22.9006   12.7262 O   0  0  0  0  0  0  0  0  0  0  0  0
   -9.7700  -23.3581   13.9858 C   0  0  0  0  0  0  0  0  0  0  0  0
   -8.7679  -23.7090   14.5620 O   0  0  0  0  0  0  0  0  0  0  0  0
  -11.1050  -23.4345   14.6807 C   0  0  0  0  0  0  0  0  0  0  0  0
  -11.7371  -22.0418   14.7262 C   0  0  0  0  0  0  0  0  0  0  0  0
  -11.2066  -21.2795   15.9413 C   0  0  0  0  0  0  0  0  0  0  0  0
  1  2  1  0
  2  3  2  0
  2 10  1  0
  3  4  1  0
  3  7  1  0
  4  5  2  0
  5  6  1  0
  6  7  1  0
  6 23  1  0
  7  8  2  0
  8  9  1  0
  9 10  2  0
  9 11  1  0
 11 12  1  0
 12 13  2  0
 12 14  1  0
 14 15  2  0
 14 22  1  0
 15 16  1  0
 15 19  1  0
 16 17  1  0
 17 18  1  0
 19 20  2  0
 20 21  1  0
 21 22  2  0
 23 24  1  0
 23 33  1  0
 24 25  1  0
 25 26  1  0
 25 32  1  0
 26 27  1  0
 27 28  1  0
 28 29  2  0
 28 30  1  0
 28 31  1  0
 31 32  1  0
 32 33  1  0
 33 34  1  0
 34 35  1  0
 35 36  2  0
 35 37  1  0
 37 38  1  0
 38 39  1  0
M  END
>  <Gold.Gold.Protein.RotatedWaterAtoms>  (481) 


>  <Gold.Id.Protein>  (481) 


>  <Gold.PLP.Chemscore.CHOScore>  (481) 
0.0000

>  <Gold.PLP.Chemscore.Hbond>  (481) 
2.0000

>  <Gold.PLP.Chemscore.Internal.Correction>  (481) 
1.8512

>  <Gold.PLP.Chemscore.Metal>  (481) 
0.0000

>  <Gold.PLP.Fitness>  (481) 
67.6640

>  <Gold.PLP.PLP>  (481) 
-63.2192

>  <Gold.PLP.ligand.clash>  (481) 
0.0000

>  <Gold.PLP.ligand.torsion>  (481) 
1.7032

>  <Gold.PLP.part.buried>  (481) 
-12.1038

>  <Gold.PLP.part.hbond>  (481) 
-3.6037

>  <Gold.PLP.part.metal>  (481) 
0.0000

>  <Gold.PLP.part.nonpolar>  (481) 
-48.8391

>  <Gold.PLP.part.repulsive>  (481) 
0.2225

>  <Gold.Protein.RotatedAtoms>  (481) 


>  <Gold.Protein.RotatedTorsions>  (481) 


>  <Gold.Protein.RotatedWaterAtoms>  (481) 


>  <Gold.Version>  (481) 
5.3.0

>  <PLP.Chemscore.CHOScore>  (481) 


>  <PLP.Chemscore.Hbond>  (481) 


>  <PLP.Chemscore.Internal.Correction>  (481) 


>  <PLP.Chemscore.Metal>  (481) 


>  <PLP.Fitness>  (481) 


>  <PLP.PLP>  (481) 


>  <PLP.ligand.clash>  (481) 


>  <PLP.ligand.torsion>  (481) 


>  <PLP.part.buried>  (481) 


>  <PLP.part.hbond>  (481) 


>  <PLP.part.metal>  (481) 


>  <PLP.part.nonpolar>  (481) 


>  <PLP.part.repulsive>  (481) 


>  <Version>  (481) 


$$$$
3481|Compound_2128|Compounds_3D_F|sdf|623|dock2|1
     RDKit          3D

 39 43  0  0  0  0  0  0  0  0999 V2000
  -12.7424  -18.1164    9.8204 O   0  0  0  0  0  0  0  0  0  0  0  0
  -11.4881  -18.4999   10.1596 C   0  0  0  0  0  0  0  0  0  0  0  0
  -11.1519  -19.8599   10.2369 C   0  0  0  0  0  0  0  0  0  0  0  0
  -11.8256  -21.0206   10.0389 N   0  0  0  0  0  0  0  0  0  0  0  0
  -11.0271  -22.0259   10.2461 C   0  0  0  0  0  0  0  0  0  0  0  0
   -9.7870  -21.5732   10.5915 N   0  0  0  0  0  0  0  0  0  0  0  0
   -9.8352  -20.2017   10.5934 C   0  0  0  0  0  0  0  0  0  0  0  0
   -8.9610  -19.2340   10.8442 N   0  0  0  0  0  0  0  0  0  0  0  0
   -9.3222  -17.9644   10.7598 C   0  0  0  0  0  0  0  0  0  0  0  0
  -10.5518  -17.5982   10.4213 N   0  0  0  0  0  0  0  0  0  0  0  0
   -8.3796  -16.9797   11.0299 N   0  0  0  0  0  0  0  0  0  0  0  0
   -8.7232  -15.9002   11.7592 C   0  0  0  0  0  0  0  0  0  0  0  0
   -9.8580  -15.7876   12.1813 O   0  0  0  0  0  0  0  0  0  0  0  0
   -7.7231  -14.8546   12.0456 C   0  0  0  0  0  0  0  0  0  0  0  0
   -6.4316  -15.2081   12.4594 C   0  0  0  0  0  0  0  0  0  0  0  0
   -6.0951  -16.5149   12.5999 O   0  0  0  0  0  0  0  0  0  0  0  0
   -4.7075  -16.8415   12.5016 C   0  0  0  0  0  0  0  0  0  0  0  0
   -4.3691  -17.1975   11.0524 C   0  0  0  0  0  0  0  0  0  0  0  0
   -5.4993  -14.2164   12.7256 C   0  0  0  0  0  0  0  0  0  0  0  0
   -5.8439  -12.8869   12.5819 C   0  0  0  0  0  0  0  0  0  0  0  0
   -7.1193  -12.5328   12.1717 C   0  0  0  0  0  0  0  0  0  0  0  0
   -8.0564  -13.5050   11.8981 C   0  0  0  0  0  0  0  0  0  0  0  0
   -8.6175  -22.3994   10.9026 C   0  0  0  0  0  0  0  0  0  0  0  0
   -8.3169  -23.2634    9.7853 O   0  0  0  0  0  0  0  0  0  0  0  0
   -8.2927  -24.6021   10.2494 C   0  0  0  0  0  0  0  0  0  0  0  0
   -8.6629  -25.6878    9.2612 C   0  0  0  0  0  0  0  0  0  0  0  0
   -8.4237  -26.9539    9.9208 O   0  0  0  0  0  0  0  0  0  0  0  0
   -9.0119  -27.2226   11.4096 P   0  0  0  0  0  0  0  0  0  0  0  0
   -8.1731  -28.2185   12.1127 O   0  0  0  0  0  0  0  0  0  0  0  0
  -10.5289  -27.7510   11.3146 O   0  0  0  0  0  0  0  0  0  0  0  0
   -8.9645  -25.7965   12.2011 O   0  0  0  0  0  0  0  0  0  0  0  0
   -9.3012  -24.6318   11.4291 C   0  0  0  0  0  0  0  0  0  0  0  0
   -8.9226  -23.3059   12.1248 C   0  0  0  0  0  0  0  0  0  0  0  0
  -10.0343  -22.7919   12.9057 O   0  0  0  0  0  0  0  0  0  0  0  0
  -10.0587  -23.1066   14.2103 C   0  0  0  0  0  0  0  0  0  0  0  0
   -9.0882  -23.6037   14.7302 O   0  0  0  0  0  0  0  0  0  0  0  0
  -11.2974  -22.8401   15.0262 C   0  0  0  0  0  0  0  0  0  0  0  0
  -11.6328  -21.3482   14.9723 C   0  0  0  0  0  0  0  0  0  0  0  0
  -13.1344  -21.1541   15.1879 C   0  0  0  0  0  0  0  0  0  0  0  0
  1  2  1  0
  2  3  2  0
  2 10  1  0
  3  4  1  0
  3  7  1  0
  4  5  2  0
  5  6  1  0
  6  7  1  0
  6 23  1  0
  7  8  2  0
  8  9  1  0
  9 10  2  0
  9 11  1  0
 11 12  1  0
 12 13  2  0
 12 14  1  0
 14 15  2  0
 14 22  1  0
 15 16  1  0
 15 19  1  0
 16 17  1  0
 17 18  1  0
 19 20  2  0
 20 21  1  0
 21 22  2  0
 23 24  1  0
 23 33  1  0
 24 25  1  0
 25 26  1  0
 25 32  1  0
 26 27  1  0
 27 28  1  0
 28 29  2  0
 28 30  1  0
 28 31  1  0
 31 32  1  0
 32 33  1  0
 33 34  1  0
 34 35  1  0
 35 36  2  0
 35 37  1  0
 37 38  1  0
 38 39  1  0
M  END
>  <Gold.Gold.Protein.RotatedWaterAtoms>  (482) 


>  <Gold.Id.Protein>  (482) 


>  <Gold.PLP.Chemscore.CHOScore>  (482) 
0.0000

>  <Gold.PLP.Chemscore.Hbond>  (482) 
1.8480

>  <Gold.PLP.Chemscore.Internal.Correction>  (482) 
1.8388

>  <Gold.PLP.Chemscore.Metal>  (482) 
0.0000

>  <Gold.PLP.Fitness>  (482) 
67.7074

>  <Gold.PLP.PLP>  (482) 
-64.9541

>  <Gold.PLP.ligand.clash>  (482) 
0.0000

>  <Gold.PLP.ligand.torsion>  (482) 
2.3147

>  <Gold.PLP.part.buried>  (482) 
-12.4180

>  <Gold.PLP.part.hbond>  (482) 
-3.0972

>  <Gold.PLP.part.metal>  (482) 
0.0000

>  <Gold.PLP.part.nonpolar>  (482) 
-50.1155

>  <Gold.PLP.part.repulsive>  (482) 
0.1547

>  <Gold.Protein.RotatedAtoms>  (482) 


>  <Gold.Protein.RotatedTorsions>  (482) 


>  <Gold.Protein.RotatedWaterAtoms>  (482) 


>  <Gold.Version>  (482) 
5.3.0

>  <PLP.Chemscore.CHOScore>  (482) 


>  <PLP.Chemscore.Hbond>  (482) 


>  <PLP.Chemscore.Internal.Correction>  (482) 


>  <PLP.Chemscore.Metal>  (482) 


>  <PLP.Fitness>  (482) 


>  <PLP.PLP>  (482) 


>  <PLP.ligand.clash>  (482) 


>  <PLP.ligand.torsion>  (482) 


>  <PLP.part.buried>  (482) 


>  <PLP.part.hbond>  (482) 


>  <PLP.part.metal>  (482) 


>  <PLP.part.nonpolar>  (482) 


>  <PLP.part.repulsive>  (482) 


>  <Version>  (482) 


$$$$
3482|Compound_2128|Compounds_3D_F|sdf|623|dock3|1
     RDKit          3D

 39 43  0  0  0  0  0  0  0  0999 V2000
  -13.6587  -19.1124    9.5999 O   0  0  0  0  0  0  0  0  0  0  0  0
  -12.4827  -19.1905   10.2680 C   0  0  0  0  0  0  0  0  0  0  0  0
  -11.9697  -20.4327   10.6708 C   0  0  0  0  0  0  0  0  0  0  0  0
  -12.3860  -21.7187   10.5542 N   0  0  0  0  0  0  0  0  0  0  0  0
  -11.5175  -22.5078   11.1145 C   0  0  0  0  0  0  0  0  0  0  0  0
  -10.4860  -21.7769   11.6280 N   0  0  0  0  0  0  0  0  0  0  0  0
  -10.7447  -20.4558   11.3611 C   0  0  0  0  0  0  0  0  0  0  0  0
  -10.1196  -19.3104   11.6080 N   0  0  0  0  0  0  0  0  0  0  0  0
  -10.6409  -18.1617   11.2100 C   0  0  0  0  0  0  0  0  0  0  0  0
  -11.7907  -18.0955   10.5511 N   0  0  0  0  0  0  0  0  0  0  0  0
   -9.9578  -16.9837   11.4869 N   0  0  0  0  0  0  0  0  0  0  0  0
   -8.6109  -16.9772   11.5169 C   0  0  0  0  0  0  0  0  0  0  0  0
   -7.9929  -18.0020   11.3014 O   0  0  0  0  0  0  0  0  0  0  0  0
   -7.8855  -15.7272   11.8114 C   0  0  0  0  0  0  0  0  0  0  0  0
   -6.5028  -15.7509   12.0392 C   0  0  0  0  0  0  0  0  0  0  0  0
   -5.8245  -16.9249   11.9911 O   0  0  0  0  0  0  0  0  0  0  0  0
   -4.6028  -16.9988   12.7284 C   0  0  0  0  0  0  0  0  0  0  0  0
   -3.4189  -16.9327   11.7612 C   0  0  0  0  0  0  0  0  0  0  0  0
   -5.8310  -14.5693   12.3149 C   0  0  0  0  0  0  0  0  0  0  0  0
   -6.5233  -13.3754   12.3633 C   0  0  0  0  0  0  0  0  0  0  0  0
   -7.8902  -13.3471   12.1374 C   0  0  0  0  0  0  0  0  0  0  0  0
   -8.5727  -14.5107   11.8571 C   0  0  0  0  0  0  0  0  0  0  0  0
   -9.3157  -22.3049   12.3343 C   0  0  0  0  0  0  0  0  0  0  0  0
   -8.7408  -23.3955   11.5825 O   0  0  0  0  0  0  0  0  0  0  0  0
   -8.6702  -24.5318   12.4265 C   0  0  0  0  0  0  0  0  0  0  0  0
   -8.7538  -25.8930   11.7689 C   0  0  0  0  0  0  0  0  0  0  0  0
   -8.5140  -26.8744   12.8056 O   0  0  0  0  0  0  0  0  0  0  0  0
   -9.3272  -26.7954   14.2081 P   0  0  0  0  0  0  0  0  0  0  0  0
   -8.5337  -27.4219   15.2888 O   0  0  0  0  0  0  0  0  0  0  0  0
  -10.7455  -27.5418   14.0645 O   0  0  0  0  0  0  0  0  0  0  0  0
   -9.5578  -25.2129   14.5324 O   0  0  0  0  0  0  0  0  0  0  0  0
   -9.8634  -24.3734   13.4065 C   0  0  0  0  0  0  0  0  0  0  0  0
   -9.7431  -22.8653   13.7170 C   0  0  0  0  0  0  0  0  0  0  0  0
  -11.0195  -22.3181   14.1429 O   0  0  0  0  0  0  0  0  0  0  0  0
  -11.4816  -22.7117   15.3400 C   0  0  0  0  0  0  0  0  0  0  0  0
  -10.8235  -23.4569   16.0264 O   0  0  0  0  0  0  0  0  0  0  0  0
  -12.8217  -22.2243   15.8273 C   0  0  0  0  0  0  0  0  0  0  0  0
  -13.3492  -21.1469   14.8774 C   0  0  0  0  0  0  0  0  0  0  0  0
  -13.6706  -21.7751   13.5206 C   0  0  0  0  0  0  0  0  0  0  0  0
  1  2  1  0
  2  3  2  0
  2 10  1  0
  3  4  1  0
  3  7  1  0
  4  5  2  0
  5  6  1  0
  6  7  1  0
  6 23  1  0
  7  8  2  0
  8  9  1  0
  9 10  2  0
  9 11  1  0
 11 12  1  0
 12 13  2  0
 12 14  1  0
 14 15  2  0
 14 22  1  0
 15 16  1  0
 15 19  1  0
 16 17  1  0
 17 18  1  0
 19 20  2  0
 20 21  1  0
 21 22  2  0
 23 24  1  0
 23 33  1  0
 24 25  1  0
 25 26  1  0
 25 32  1  0
 26 27  1  0
 27 28  1  0
 28 29  2  0
 28 30  1  0
 28 31  1  0
 31 32  1  0
 32 33  1  0
 33 34  1  0
 34 35  1  0
 35 36  2  0
 35 37  1  0
 37 38  1  0
 38 39  1  0
M  END
>  <Gold.Gold.Protein.RotatedWaterAtoms>  (483) 


>  <Gold.Id.Protein>  (483) 


>  <Gold.PLP.Chemscore.CHOScore>  (483) 
0.0000

>  <Gold.PLP.Chemscore.Hbond>  (483) 
1.7593

>  <Gold.PLP.Chemscore.Internal.Correction>  (483) 
1.8388

>  <Gold.PLP.Chemscore.Metal>  (483) 
0.0000

>  <Gold.PLP.Fitness>  (483) 
64.2102

>  <Gold.PLP.PLP>  (483) 
-59.5668

>  <Gold.PLP.ligand.clash>  (483) 
0.0000

>  <Gold.PLP.ligand.torsion>  (483) 
1.2366

>  <Gold.PLP.part.buried>  (483) 
-12.3289

>  <Gold.PLP.part.hbond>  (483) 
-3.0000

>  <Gold.PLP.part.metal>  (483) 
0.0000

>  <Gold.PLP.part.nonpolar>  (483) 
-45.7978

>  <Gold.PLP.part.repulsive>  (483) 
0.1144

>  <Gold.Protein.RotatedAtoms>  (483) 


>  <Gold.Protein.RotatedTorsions>  (483) 


>  <Gold.Protein.RotatedWaterAtoms>  (483) 


>  <Gold.Version>  (483) 
5.3.0

>  <PLP.Chemscore.CHOScore>  (483) 


>  <PLP.Chemscore.Hbond>  (483) 


>  <PLP.Chemscore.Internal.Correction>  (483) 


>  <PLP.Chemscore.Metal>  (483) 


>  <PLP.Fitness>  (483) 


>  <PLP.PLP>  (483) 


>  <PLP.ligand.clash>  (483) 


>  <PLP.ligand.torsion>  (483) 


>  <PLP.part.buried>  (483) 


>  <PLP.part.hbond>  (483) 


>  <PLP.part.metal>  (483) 


>  <PLP.part.nonpolar>  (483) 


>  <PLP.part.repulsive>  (483) 


>  <Version>  (483) 


$$$$
3483|Compound_2128|Compounds_3D_F|sdf|623|dock4|1
     RDKit          3D

 39 43  0  0  0  0  0  0  0  0999 V2000
  -12.8539  -18.2355    9.8127 O   0  0  0  0  0  0  0  0  0  0  0  0
  -11.6161  -18.6278   10.1994 C   0  0  0  0  0  0  0  0  0  0  0  0
  -11.3131  -19.9888   10.3556 C   0  0  0  0  0  0  0  0  0  0  0  0
  -12.0090  -21.1434   10.2039 N   0  0  0  0  0  0  0  0  0  0  0  0
  -11.2385  -22.1535   10.4815 C   0  0  0  0  0  0  0  0  0  0  0  0
   -9.9958  -21.7104   10.8301 N   0  0  0  0  0  0  0  0  0  0  0  0
  -10.0124  -20.3400   10.7587 C   0  0  0  0  0  0  0  0  0  0  0  0
   -9.1216  -19.3797   10.9776 N   0  0  0  0  0  0  0  0  0  0  0  0
   -9.4516  -18.1087   10.8186 C   0  0  0  0  0  0  0  0  0  0  0  0
  -10.6650  -17.7342   10.4340 N   0  0  0  0  0  0  0  0  0  0  0  0
   -8.4925  -17.1320   11.0574 N   0  0  0  0  0  0  0  0  0  0  0  0
   -8.8129  -16.0326   11.7672 C   0  0  0  0  0  0  0  0  0  0  0  0
   -9.9413  -15.8950   12.1990 O   0  0  0  0  0  0  0  0  0  0  0  0
   -7.7953  -14.9954   12.0203 C   0  0  0  0  0  0  0  0  0  0  0  0
   -6.4497  -15.3519   12.1826 C   0  0  0  0  0  0  0  0  0  0  0  0
   -6.0764  -16.6543   12.1086 O   0  0  0  0  0  0  0  0  0  0  0  0
   -4.8799  -17.0260   12.7955 C   0  0  0  0  0  0  0  0  0  0  0  0
   -3.6673  -16.6939   11.9232 C   0  0  0  0  0  0  0  0  0  0  0  0
   -5.5013  -14.3681   12.4199 C   0  0  0  0  0  0  0  0  0  0  0  0
   -5.8834  -13.0432   12.4946 C   0  0  0  0  0  0  0  0  0  0  0  0
   -7.2125  -12.6859   12.3335 C   0  0  0  0  0  0  0  0  0  0  0  0
   -8.1671  -13.6496   12.0921 C   0  0  0  0  0  0  0  0  0  0  0  0
   -8.8524  -22.5443   11.2101 C   0  0  0  0  0  0  0  0  0  0  0  0
   -8.6231  -23.5508   10.2004 O   0  0  0  0  0  0  0  0  0  0  0  0
   -8.6400  -24.8227   10.8252 C   0  0  0  0  0  0  0  0  0  0  0  0
   -9.0857  -26.0030    9.9883 C   0  0  0  0  0  0  0  0  0  0  0  0
   -8.8788  -27.1886   10.7924 O   0  0  0  0  0  0  0  0  0  0  0  0
   -9.4307  -27.2469   12.3178 P   0  0  0  0  0  0  0  0  0  0  0  0
   -8.6123  -28.1864   13.1162 O   0  0  0  0  0  0  0  0  0  0  0  0
  -10.9705  -27.7141   12.3281 O   0  0  0  0  0  0  0  0  0  0  0  0
   -9.2993  -25.7384   12.9260 O   0  0  0  0  0  0  0  0  0  0  0  0
   -9.6114  -24.6627   12.0253 C   0  0  0  0  0  0  0  0  0  0  0  0
   -9.1565  -23.2802   12.5423 C   0  0  0  0  0  0  0  0  0  0  0  0
  -10.2209  -22.6253   13.2825 O   0  0  0  0  0  0  0  0  0  0  0  0
  -10.3200  -22.9138   14.5896 C   0  0  0  0  0  0  0  0  0  0  0  0
   -9.6919  -23.8351   15.0543 O   0  0  0  0  0  0  0  0  0  0  0  0
  -11.2156  -22.0883   15.4771 C   0  0  0  0  0  0  0  0  0  0  0  0
  -12.0012  -21.0908   14.6233 C   0  0  0  0  0  0  0  0  0  0  0  0
  -13.0966  -21.8293   13.8529 C   0  0  0  0  0  0  0  0  0  0  0  0
  1  2  1  0
  2  3  2  0
  2 10  1  0
  3  4  1  0
  3  7  1  0
  4  5  2  0
  5  6  1  0
  6  7  1  0
  6 23  1  0
  7  8  2  0
  8  9  1  0
  9 10  2  0
  9 11  1  0
 11 12  1  0
 12 13  2  0
 12 14  1  0
 14 15  2  0
 14 22  1  0
 15 16  1  0
 15 19  1  0
 16 17  1  0
 17 18  1  0
 19 20  2  0
 20 21  1  0
 21 22  2  0
 23 24  1  0
 23 33  1  0
 24 25  1  0
 25 26  1  0
 25 32  1  0
 26 27  1  0
 27 28  1  0
 28 29  2  0
 28 30  1  0
 28 31  1  0
 31 32  1  0
 32 33  1  0
 33 34  1  0
 34 35  1  0
 35 36  2  0
 35 37  1  0
 37 38  1  0
 38 39  1  0
M  END
>  <Gold.Gold.Protein.RotatedWaterAtoms>  (484) 


>  <Gold.Id.Protein>  (484) 


>  <Gold.PLP.Chemscore.CHOScore>  (484) 
0.0000

>  <Gold.PLP.Chemscore.Hbond>  (484) 
2.0000

>  <Gold.PLP.Chemscore.Internal.Correction>  (484) 
1.6620

>  <Gold.PLP.Chemscore.Metal>  (484) 
0.0000

>  <Gold.PLP.Fitness>  (484) 
68.4129

>  <Gold.PLP.PLP>  (484) 
-64.3855

>  <Gold.PLP.ligand.clash>  (484) 
0.0000

>  <Gold.PLP.ligand.torsion>  (484) 
1.8174

>  <Gold.PLP.part.buried>  (484) 
-11.6027

>  <Gold.PLP.part.hbond>  (484) 
-2.5324

>  <Gold.PLP.part.metal>  (484) 
0.0000

>  <Gold.PLP.part.nonpolar>  (484) 
-50.1998

>  <Gold.PLP.part.repulsive>  (484) 
0.1410

>  <Gold.Protein.RotatedAtoms>  (484) 


>  <Gold.Protein.RotatedTorsions>  (484) 


>  <Gold.Protein.RotatedWaterAtoms>  (484) 


>  <Gold.Version>  (484) 
5.3.0

>  <PLP.Chemscore.CHOScore>  (484) 


>  <PLP.Chemscore.Hbond>  (484) 


>  <PLP.Chemscore.Internal.Correction>  (484) 


>  <PLP.Chemscore.Metal>  (484) 


>  <PLP.Fitness>  (484) 


>  <PLP.PLP>  (484) 


>  <PLP.ligand.clash>  (484) 


>  <PLP.ligand.torsion>  (484) 


>  <PLP.part.buried>  (484) 


>  <PLP.part.hbond>  (484) 


>  <PLP.part.metal>  (484) 


>  <PLP.part.nonpolar>  (484) 


>  <PLP.part.repulsive>  (484) 


>  <Version>  (484) 


$$$$
3484|Compound_2129|Compounds_3D_F|sdf|624|dock1|1
     RDKit          3D

 27 29  0  0  0  0  0  0  0  0999 V2000
  -10.4266  -16.8664   11.9325 N   0  0  0  0  0  0  0  0  0  0  0  0
   -9.1389  -16.7953   11.5402 C   0  0  0  0  0  0  0  0  0  0  0  0
   -8.5999  -17.7662   11.0469 O   0  0  0  0  0  0  0  0  0  0  0  0
   -8.3854  -15.5384   11.7102 C   0  0  0  0  0  0  0  0  0  0  0  0
   -7.0253  -15.5816   12.0836 C   0  0  0  0  0  0  0  0  0  0  0  0
   -6.4219  -16.7822   12.2833 O   0  0  0  0  0  0  0  0  0  0  0  0
   -5.0183  -16.8532   12.0243 C   0  0  0  0  0  0  0  0  0  0  0  0
   -6.3108  -14.4317   12.2451 C   0  0  0  0  0  0  0  0  0  0  0  0
   -6.9273  -13.1876   12.0402 C   0  0  0  0  0  0  0  0  0  0  0  0
   -6.2075  -11.9847   12.2001 C   0  0  0  0  0  0  0  0  0  0  0  0
   -4.8979  -12.0153   12.5575 O   0  0  0  0  0  0  0  0  0  0  0  0
   -4.0728  -10.9465   12.0895 C   0  0  0  0  0  0  0  0  0  0  0  0
   -6.8364  -10.7899   11.9928 C   0  0  0  0  0  0  0  0  0  0  0  0
   -8.1788  -10.7408   11.6249 C   0  0  0  0  0  0  0  0  0  0  0  0
   -8.9039  -11.8795   11.4611 C   0  0  0  0  0  0  0  0  0  0  0  0
   -8.2942  -13.1321   11.6656 C   0  0  0  0  0  0  0  0  0  0  0  0
   -9.0157  -14.3224   11.4975 C   0  0  0  0  0  0  0  0  0  0  0  0
  -11.1351  -18.0507   11.7774 C   0  0  0  0  0  0  0  0  0  0  0  0
  -12.0458  -18.1376   10.8197 N   0  0  0  0  0  0  0  0  0  0  0  0
  -12.7375  -19.2514   10.6449 C   0  0  0  0  0  0  0  0  0  0  0  0
  -12.5011  -20.3328   11.4782 C   0  0  0  0  0  0  0  0  0  0  0  0
  -11.5412  -20.2062   12.4702 C   0  0  0  0  0  0  0  0  0  0  0  0
  -10.8801  -19.0664   12.5876 N   0  0  0  0  0  0  0  0  0  0  0  0
  -13.7727  -19.3427    9.5523 C   0  0  0  0  0  0  0  0  0  0  0  0
  -15.0030  -19.7106   10.1066 F   0  0  0  0  0  0  0  0  0  0  0  0
  -13.8973  -18.0992    8.9237 F   0  0  0  0  0  0  0  0  0  0  0  0
  -13.3776  -20.3029    8.6146 F   0  0  0  0  0  0  0  0  0  0  0  0
  1  2  1  0
  1 18  1  0
  2  3  2  0
  2  4  1  0
  4  5  2  0
  4 17  1  0
  5  6  1  0
  5  8  1  0
  6  7  1  0
  8  9  2  0
  9 10  1  0
  9 16  1  0
 10 11  1  0
 10 13  2  0
 11 12  1  0
 13 14  1  0
 14 15  2  0
 15 16  1  0
 16 17  2  0
 18 19  2  0
 18 23  1  0
 19 20  1  0
 20 21  2  0
 20 24  1  0
 21 22  1  0
 22 23  2  0
 24 25  1  0
 24 26  1  0
 24 27  1  0
M  END
>  <Gold.Gold.Protein.RotatedWaterAtoms>  (485) 


>  <Gold.Id.Protein>  (485) 


>  <Gold.PLP.Chemscore.CHOScore>  (485) 
0.0000

>  <Gold.PLP.Chemscore.Hbond>  (485) 
0.6080

>  <Gold.PLP.Chemscore.Internal.Correction>  (485) 
1.9519

>  <Gold.PLP.Chemscore.Metal>  (485) 
0.0000

>  <Gold.PLP.Fitness>  (485) 
65.8344

>  <Gold.PLP.PLP>  (485) 
-66.2017

>  <Gold.PLP.ligand.clash>  (485) 
0.0000

>  <Gold.PLP.ligand.torsion>  (485) 
2.0717

>  <Gold.PLP.part.buried>  (485) 
-5.3026

>  <Gold.PLP.part.hbond>  (485) 
-2.5529

>  <Gold.PLP.part.metal>  (485) 
0.0000

>  <Gold.PLP.part.nonpolar>  (485) 
-58.1573

>  <Gold.PLP.part.repulsive>  (485) 
1.0835

>  <Gold.Protein.RotatedAtoms>  (485) 


>  <Gold.Protein.RotatedTorsions>  (485) 


>  <Gold.Protein.RotatedWaterAtoms>  (485) 


>  <Gold.Version>  (485) 
5.3.0

>  <PLP.Chemscore.CHOScore>  (485) 


>  <PLP.Chemscore.Hbond>  (485) 


>  <PLP.Chemscore.Internal.Correction>  (485) 


>  <PLP.Chemscore.Metal>  (485) 


>  <PLP.Fitness>  (485) 


>  <PLP.PLP>  (485) 


>  <PLP.ligand.clash>  (485) 


>  <PLP.ligand.torsion>  (485) 


>  <PLP.part.buried>  (485) 


>  <PLP.part.hbond>  (485) 


>  <PLP.part.metal>  (485) 


>  <PLP.part.nonpolar>  (485) 


>  <PLP.part.repulsive>  (485) 


>  <Version>  (485) 


$$$$
3485|Compound_2129|Compounds_3D_F|sdf|624|dock2|1
     RDKit          3D

 27 29  0  0  0  0  0  0  0  0999 V2000
  -10.0772  -16.9020   11.5338 N   0  0  0  0  0  0  0  0  0  0  0  0
   -8.7311  -16.8542   11.5863 C   0  0  0  0  0  0  0  0  0  0  0  0
   -8.0827  -17.8769   11.4854 O   0  0  0  0  0  0  0  0  0  0  0  0
   -8.0464  -15.5598   11.7661 C   0  0  0  0  0  0  0  0  0  0  0  0
   -6.6866  -15.5326   12.1419 C   0  0  0  0  0  0  0  0  0  0  0  0
   -6.0200  -16.7003   12.3350 O   0  0  0  0  0  0  0  0  0  0  0  0
   -4.6173  -16.6988   12.0614 C   0  0  0  0  0  0  0  0  0  0  0  0
   -6.0351  -14.3471   12.3125 C   0  0  0  0  0  0  0  0  0  0  0  0
   -6.7171  -13.1365   12.1145 C   0  0  0  0  0  0  0  0  0  0  0  0
   -6.0632  -11.8978   12.2839 C   0  0  0  0  0  0  0  0  0  0  0  0
   -4.7544  -11.8605   12.6436 O   0  0  0  0  0  0  0  0  0  0  0  0
   -3.9870  -10.7459   12.1844 C   0  0  0  0  0  0  0  0  0  0  0  0
   -6.7549  -10.7371   12.0831 C   0  0  0  0  0  0  0  0  0  0  0  0
   -8.0974  -10.7577   11.7129 C   0  0  0  0  0  0  0  0  0  0  0  0
   -8.7600  -11.9325   11.5401 C   0  0  0  0  0  0  0  0  0  0  0  0
   -8.0844  -13.1518   11.7375 C   0  0  0  0  0  0  0  0  0  0  0  0
   -8.7407  -14.3780   11.5601 C   0  0  0  0  0  0  0  0  0  0  0  0
  -10.7227  -18.1206   11.3695 C   0  0  0  0  0  0  0  0  0  0  0  0
  -11.8329  -18.1713   10.6491 N   0  0  0  0  0  0  0  0  0  0  0  0
  -12.4716  -19.3161   10.4728 C   0  0  0  0  0  0  0  0  0  0  0  0
  -11.9672  -20.4688   11.0529 C   0  0  0  0  0  0  0  0  0  0  0  0
  -10.8036  -20.3786   11.8009 C   0  0  0  0  0  0  0  0  0  0  0  0
  -10.2104  -19.2037   11.9332 N   0  0  0  0  0  0  0  0  0  0  0  0
  -13.7350  -19.3658    9.6514 C   0  0  0  0  0  0  0  0  0  0  0  0
  -14.7994  -19.7788   10.4593 F   0  0  0  0  0  0  0  0  0  0  0  0
  -14.0062  -18.0936    9.1365 F   0  0  0  0  0  0  0  0  0  0  0  0
  -13.5707  -20.2712    8.5974 F   0  0  0  0  0  0  0  0  0  0  0  0
  1  2  1  0
  1 18  1  0
  2  3  2  0
  2  4  1  0
  4  5  2  0
  4 17  1  0
  5  6  1  0
  5  8  1  0
  6  7  1  0
  8  9  2  0
  9 10  1  0
  9 16  1  0
 10 11  1  0
 10 13  2  0
 11 12  1  0
 13 14  1  0
 14 15  2  0
 15 16  1  0
 16 17  2  0
 18 19  2  0
 18 23  1  0
 19 20  1  0
 20 21  2  0
 20 24  1  0
 21 22  1  0
 22 23  2  0
 24 25  1  0
 24 26  1  0
 24 27  1  0
M  END
>  <Gold.Gold.Protein.RotatedWaterAtoms>  (486) 


>  <Gold.Id.Protein>  (486) 


>  <Gold.PLP.Chemscore.CHOScore>  (486) 
0.0000

>  <Gold.PLP.Chemscore.Hbond>  (486) 
0.8640

>  <Gold.PLP.Chemscore.Internal.Correction>  (486) 
1.9519

>  <Gold.PLP.Chemscore.Metal>  (486) 
0.0000

>  <Gold.PLP.Fitness>  (486) 
68.2741

>  <Gold.PLP.PLP>  (486) 
-65.9710

>  <Gold.PLP.ligand.clash>  (486) 
0.0000

>  <Gold.PLP.ligand.torsion>  (486) 
1.1204

>  <Gold.PLP.part.buried>  (486) 
-8.8362

>  <Gold.PLP.part.hbond>  (486) 
-1.9236

>  <Gold.PLP.part.metal>  (486) 
0.0000

>  <Gold.PLP.part.nonpolar>  (486) 
-59.4583

>  <Gold.PLP.part.repulsive>  (486) 
2.3614

>  <Gold.Protein.RotatedAtoms>  (486) 


>  <Gold.Protein.RotatedTorsions>  (486) 


>  <Gold.Protein.RotatedWaterAtoms>  (486) 


>  <Gold.Version>  (486) 
5.3.0

>  <PLP.Chemscore.CHOScore>  (486) 


>  <PLP.Chemscore.Hbond>  (486) 


>  <PLP.Chemscore.Internal.Correction>  (486) 


>  <PLP.Chemscore.Metal>  (486) 


>  <PLP.Fitness>  (486) 


>  <PLP.PLP>  (486) 


>  <PLP.ligand.clash>  (486) 


>  <PLP.ligand.torsion>  (486) 


>  <PLP.part.buried>  (486) 


>  <PLP.part.hbond>  (486) 


>  <PLP.part.metal>  (486) 


>  <PLP.part.nonpolar>  (486) 


>  <PLP.part.repulsive>  (486) 


>  <Version>  (486) 


$$$$
3486|Compound_2129|Compounds_3D_F|sdf|624|dock3|1
     RDKit          3D

 27 29  0  0  0  0  0  0  0  0999 V2000
  -10.9048  -19.0994    9.6568 N   0  0  0  0  0  0  0  0  0  0  0  0
  -10.5298  -18.2912   10.6683 C   0  0  0  0  0  0  0  0  0  0  0  0
  -11.3598  -17.8725   11.4509 O   0  0  0  0  0  0  0  0  0  0  0  0
   -9.1116  -17.9158   10.8242 C   0  0  0  0  0  0  0  0  0  0  0  0
   -8.1099  -18.6840   10.1935 C   0  0  0  0  0  0  0  0  0  0  0  0
   -8.4617  -19.7635    9.4478 O   0  0  0  0  0  0  0  0  0  0  0  0
   -7.6082  -20.1003    8.3522 C   0  0  0  0  0  0  0  0  0  0  0  0
   -6.7936  -18.3537   10.3243 C   0  0  0  0  0  0  0  0  0  0  0  0
   -6.4224  -17.2395   11.0929 C   0  0  0  0  0  0  0  0  0  0  0  0
   -5.0667  -16.8779   11.2411 C   0  0  0  0  0  0  0  0  0  0  0  0
   -4.0952  -17.6092   10.6370 O   0  0  0  0  0  0  0  0  0  0  0  0
   -2.8217  -17.6560   11.2837 C   0  0  0  0  0  0  0  0  0  0  0  0
   -4.7383  -15.7875   11.9956 C   0  0  0  0  0  0  0  0  0  0  0  0
   -5.7224  -15.0259   12.6211 C   0  0  0  0  0  0  0  0  0  0  0  0
   -7.0390  -15.3442   12.5003 C   0  0  0  0  0  0  0  0  0  0  0  0
   -7.4207  -16.4607   11.7321 C   0  0  0  0  0  0  0  0  0  0  0  0
   -8.7709  -16.8083   11.5848 C   0  0  0  0  0  0  0  0  0  0  0  0
  -12.2404  -19.4492    9.5064 C   0  0  0  0  0  0  0  0  0  0  0  0
  -12.5443  -20.6273    8.9832 N   0  0  0  0  0  0  0  0  0  0  0  0
  -13.8063  -20.9913    8.8269 C   0  0  0  0  0  0  0  0  0  0  0  0
  -14.8140  -20.1237    9.2161 C   0  0  0  0  0  0  0  0  0  0  0  0
  -14.4593  -18.8986    9.7592 C   0  0  0  0  0  0  0  0  0  0  0  0
  -13.1781  -18.5985    9.8939 N   0  0  0  0  0  0  0  0  0  0  0  0
  -14.1444  -22.3342    8.2304 C   0  0  0  0  0  0  0  0  0  0  0  0
  -14.9985  -22.1561    7.1373 F   0  0  0  0  0  0  0  0  0  0  0  0
  -12.9696  -22.9647    7.8068 F   0  0  0  0  0  0  0  0  0  0  0  0
  -14.7786  -23.1261    9.1938 F   0  0  0  0  0  0  0  0  0  0  0  0
  1  2  1  0
  1 18  1  0
  2  3  2  0
  2  4  1  0
  4  5  2  0
  4 17  1  0
  5  6  1  0
  5  8  1  0
  6  7  1  0
  8  9  2  0
  9 10  1  0
  9 16  1  0
 10 11  1  0
 10 13  2  0
 11 12  1  0
 13 14  1  0
 14 15  2  0
 15 16  1  0
 16 17  2  0
 18 19  2  0
 18 23  1  0
 19 20  1  0
 20 21  2  0
 20 24  1  0
 21 22  1  0
 22 23  2  0
 24 25  1  0
 24 26  1  0
 24 27  1  0
M  END
>  <Gold.Gold.Protein.RotatedWaterAtoms>  (487) 


>  <Gold.Id.Protein>  (487) 


>  <Gold.PLP.Chemscore.CHOScore>  (487) 
0.0000

>  <Gold.PLP.Chemscore.Hbond>  (487) 
1.0000

>  <Gold.PLP.Chemscore.Internal.Correction>  (487) 
1.9519

>  <Gold.PLP.Chemscore.Metal>  (487) 
0.0000

>  <Gold.PLP.Fitness>  (487) 
57.8400

>  <Gold.PLP.PLP>  (487) 
-55.2688

>  <Gold.PLP.ligand.clash>  (487) 
0.0000

>  <Gold.PLP.ligand.torsion>  (487) 
1.1904

>  <Gold.PLP.part.buried>  (487) 
-9.3467

>  <Gold.PLP.part.hbond>  (487) 
-1.0000

>  <Gold.PLP.part.metal>  (487) 
0.0000

>  <Gold.PLP.part.nonpolar>  (487) 
-44.6857

>  <Gold.PLP.part.repulsive>  (487) 
0.2201

>  <Gold.Protein.RotatedAtoms>  (487) 


>  <Gold.Protein.RotatedTorsions>  (487) 


>  <Gold.Protein.RotatedWaterAtoms>  (487) 


>  <Gold.Version>  (487) 
5.3.0

>  <PLP.Chemscore.CHOScore>  (487) 


>  <PLP.Chemscore.Hbond>  (487) 


>  <PLP.Chemscore.Internal.Correction>  (487) 


>  <PLP.Chemscore.Metal>  (487) 


>  <PLP.Fitness>  (487) 


>  <PLP.PLP>  (487) 


>  <PLP.ligand.clash>  (487) 


>  <PLP.ligand.torsion>  (487) 


>  <PLP.part.buried>  (487) 


>  <PLP.part.hbond>  (487) 


>  <PLP.part.metal>  (487) 


>  <PLP.part.nonpolar>  (487) 


>  <PLP.part.repulsive>  (487) 


>  <Version>  (487) 


$$$$
3487|Compound_2129|Compounds_3D_F|sdf|624|dock4|1
     RDKit          3D

 27 29  0  0  0  0  0  0  0  0999 V2000
  -10.9410  -18.7082    9.9415 N   0  0  0  0  0  0  0  0  0  0  0  0
  -10.5490  -18.0820   11.0691 C   0  0  0  0  0  0  0  0  0  0  0  0
  -11.3566  -17.8498   11.9469 O   0  0  0  0  0  0  0  0  0  0  0  0
   -9.1396  -17.6795   11.2362 C   0  0  0  0  0  0  0  0  0  0  0  0
   -8.1082  -18.5646   10.8567 C   0  0  0  0  0  0  0  0  0  0  0  0
   -8.4236  -19.7809   10.3405 O   0  0  0  0  0  0  0  0  0  0  0  0
   -7.4955  -20.3534    9.4168 C   0  0  0  0  0  0  0  0  0  0  0  0
   -6.7993  -18.2117   11.0021 C   0  0  0  0  0  0  0  0  0  0  0  0
   -6.4657  -16.9566   11.5345 C   0  0  0  0  0  0  0  0  0  0  0  0
   -5.1183  -16.5692   11.6928 C   0  0  0  0  0  0  0  0  0  0  0  0
   -4.1183  -17.4127   11.3292 O   0  0  0  0  0  0  0  0  0  0  0  0
   -2.8903  -17.3132   12.0532 C   0  0  0  0  0  0  0  0  0  0  0  0
   -4.8267  -15.3405   12.2135 C   0  0  0  0  0  0  0  0  0  0  0  0
   -5.8403  -14.4629   12.5906 C   0  0  0  0  0  0  0  0  0  0  0  0
   -7.1499  -14.8019   12.4522 C   0  0  0  0  0  0  0  0  0  0  0  0
   -7.4942  -16.0592   11.9202 C   0  0  0  0  0  0  0  0  0  0  0  0
   -8.8360  -16.4326   11.7600 C   0  0  0  0  0  0  0  0  0  0  0  0
  -12.2687  -19.0830    9.7813 C   0  0  0  0  0  0  0  0  0  0  0  0
  -12.5465  -20.2813    9.2906 N   0  0  0  0  0  0  0  0  0  0  0  0
  -13.8003  -20.6693    9.1261 C   0  0  0  0  0  0  0  0  0  0  0  0
  -14.8270  -19.8057    9.4721 C   0  0  0  0  0  0  0  0  0  0  0  0
  -14.4994  -18.5590    9.9821 C   0  0  0  0  0  0  0  0  0  0  0  0
  -13.2251  -18.2352   10.1273 N   0  0  0  0  0  0  0  0  0  0  0  0
  -14.1087  -22.0352    8.5667 C   0  0  0  0  0  0  0  0  0  0  0  0
  -14.7826  -22.7916    9.5310 F   0  0  0  0  0  0  0  0  0  0  0  0
  -14.9145  -21.9023    7.4309 F   0  0  0  0  0  0  0  0  0  0  0  0
  -12.9150  -22.6777    8.2202 F   0  0  0  0  0  0  0  0  0  0  0  0
  1  2  1  0
  1 18  1  0
  2  3  2  0
  2  4  1  0
  4  5  2  0
  4 17  1  0
  5  6  1  0
  5  8  1  0
  6  7  1  0
  8  9  2  0
  9 10  1  0
  9 16  1  0
 10 11  1  0
 10 13  2  0
 11 12  1  0
 13 14  1  0
 14 15  2  0
 15 16  1  0
 16 17  2  0
 18 19  2  0
 18 23  1  0
 19 20  1  0
 20 21  2  0
 20 24  1  0
 21 22  1  0
 22 23  2  0
 24 25  1  0
 24 26  1  0
 24 27  1  0
M  END
>  <Gold.Gold.Protein.RotatedWaterAtoms>  (488) 


>  <Gold.Id.Protein>  (488) 


>  <Gold.PLP.Chemscore.CHOScore>  (488) 
0.0000

>  <Gold.PLP.Chemscore.Hbond>  (488) 
1.0502

>  <Gold.PLP.Chemscore.Internal.Correction>  (488) 
1.9519

>  <Gold.PLP.Chemscore.Metal>  (488) 
0.0000

>  <Gold.PLP.Fitness>  (488) 
56.9111

>  <Gold.PLP.PLP>  (488) 
-55.4872

>  <Gold.PLP.ligand.clash>  (488) 
0.0000

>  <Gold.PLP.ligand.torsion>  (488) 
1.8393

>  <Gold.PLP.part.buried>  (488) 
-8.0022

>  <Gold.PLP.part.hbond>  (488) 
-1.2607

>  <Gold.PLP.part.metal>  (488) 
0.0000

>  <Gold.PLP.part.nonpolar>  (488) 
-46.2966

>  <Gold.PLP.part.repulsive>  (488) 
0.2095

>  <Gold.Protein.RotatedAtoms>  (488) 


>  <Gold.Protein.RotatedTorsions>  (488) 


>  <Gold.Protein.RotatedWaterAtoms>  (488) 


>  <Gold.Version>  (488) 
5.3.0

>  <PLP.Chemscore.CHOScore>  (488) 


>  <PLP.Chemscore.Hbond>  (488) 


>  <PLP.Chemscore.Internal.Correction>  (488) 


>  <PLP.Chemscore.Metal>  (488) 


>  <PLP.Fitness>  (488) 


>  <PLP.PLP>  (488) 


>  <PLP.ligand.clash>  (488) 


>  <PLP.ligand.torsion>  (488) 


>  <PLP.part.buried>  (488) 


>  <PLP.part.hbond>  (488) 


>  <PLP.part.metal>  (488) 


>  <PLP.part.nonpolar>  (488) 


>  <PLP.part.repulsive>  (488) 


>  <Version>  (488) 


$$$$
3488|Compound_2129|Compounds_3D_F|sdf|624|dock5|1
     RDKit          3D

 27 29  0  0  0  0  0  0  0  0999 V2000
   -9.8463  -16.9716   11.5887 N   0  0  0  0  0  0  0  0  0  0  0  0
   -8.5334  -16.8461   11.3103 C   0  0  0  0  0  0  0  0  0  0  0  0
   -7.9151  -17.7902   10.8599 O   0  0  0  0  0  0  0  0  0  0  0  0
   -7.8484  -15.5621   11.5528 C   0  0  0  0  0  0  0  0  0  0  0  0
   -6.4761  -15.5509   11.8813 C   0  0  0  0  0  0  0  0  0  0  0  0
   -5.7979  -16.7244   11.9714 O   0  0  0  0  0  0  0  0  0  0  0  0
   -4.3988  -16.6882   11.6825 C   0  0  0  0  0  0  0  0  0  0  0  0
   -5.8243  -14.3752   12.1084 C   0  0  0  0  0  0  0  0  0  0  0  0
   -6.5183  -13.1586   12.0169 C   0  0  0  0  0  0  0  0  0  0  0  0
   -5.8643  -11.9298   12.2462 C   0  0  0  0  0  0  0  0  0  0  0  0
   -4.5437  -11.9077   12.5612 O   0  0  0  0  0  0  0  0  0  0  0  0
   -3.8107  -10.7346   12.2025 C   0  0  0  0  0  0  0  0  0  0  0  0
   -6.5678  -10.7629   12.1489 C   0  0  0  0  0  0  0  0  0  0  0  0
   -7.9226  -10.7677   11.8258 C   0  0  0  0  0  0  0  0  0  0  0  0
   -8.5858  -11.9327   11.5976 C   0  0  0  0  0  0  0  0  0  0  0  0
   -7.8981  -13.1580   11.6883 C   0  0  0  0  0  0  0  0  0  0  0  0
   -8.5549  -14.3738   11.4518 C   0  0  0  0  0  0  0  0  0  0  0  0
  -10.4907  -18.1815   11.3654 C   0  0  0  0  0  0  0  0  0  0  0  0
  -11.6395  -18.1891   10.7065 N   0  0  0  0  0  0  0  0  0  0  0  0
  -12.2783  -19.3243   10.4767 C   0  0  0  0  0  0  0  0  0  0  0  0
  -11.7330  -20.5126   10.9351 C   0  0  0  0  0  0  0  0  0  0  0  0
  -10.5295  -20.4670   11.6216 C   0  0  0  0  0  0  0  0  0  0  0  0
   -9.9389  -19.2989   11.8126 N   0  0  0  0  0  0  0  0  0  0  0  0
  -13.5859  -19.3250    9.7258 C   0  0  0  0  0  0  0  0  0  0  0  0
  -13.8918  -18.0211    9.3228 F   0  0  0  0  0  0  0  0  0  0  0  0
  -13.4759  -20.1477    8.5997 F   0  0  0  0  0  0  0  0  0  0  0  0
  -14.6018  -19.8063   10.5588 F   0  0  0  0  0  0  0  0  0  0  0  0
  1  2  1  0
  1 18  1  0
  2  3  2  0
  2  4  1  0
  4  5  2  0
  4 17  1  0
  5  6  1  0
  5  8  1  0
  6  7  1  0
  8  9  2  0
  9 10  1  0
  9 16  1  0
 10 11  1  0
 10 13  2  0
 11 12  1  0
 13 14  1  0
 14 15  2  0
 15 16  1  0
 16 17  2  0
 18 19  2  0
 18 23  1  0
 19 20  1  0
 20 21  2  0
 20 24  1  0
 21 22  1  0
 22 23  2  0
 24 25  1  0
 24 26  1  0
 24 27  1  0
M  END
>  <Gold.Gold.Protein.RotatedWaterAtoms>  (489) 


>  <Gold.Id.Protein>  (489) 


>  <Gold.PLP.Chemscore.CHOScore>  (489) 
0.0000

>  <Gold.PLP.Chemscore.Hbond>  (489) 
0.3900

>  <Gold.PLP.Chemscore.Internal.Correction>  (489) 
1.9519

>  <Gold.PLP.Chemscore.Metal>  (489) 
0.0000

>  <Gold.PLP.Fitness>  (489) 
63.9233

>  <Gold.PLP.PLP>  (489) 
-63.9111

>  <Gold.PLP.ligand.clash>  (489) 
0.0000

>  <Gold.PLP.ligand.torsion>  (489) 
1.5549

>  <Gold.PLP.part.buried>  (489) 
-8.7690

>  <Gold.PLP.part.hbond>  (489) 
-2.0000

>  <Gold.PLP.part.metal>  (489) 
0.0000

>  <Gold.PLP.part.nonpolar>  (489) 
-58.6210

>  <Gold.PLP.part.repulsive>  (489) 
3.1333

>  <Gold.Protein.RotatedAtoms>  (489) 


>  <Gold.Protein.RotatedTorsions>  (489) 


>  <Gold.Protein.RotatedWaterAtoms>  (489) 


>  <Gold.Version>  (489) 
5.3.0

>  <PLP.Chemscore.CHOScore>  (489) 


>  <PLP.Chemscore.Hbond>  (489) 


>  <PLP.Chemscore.Internal.Correction>  (489) 


>  <PLP.Chemscore.Metal>  (489) 


>  <PLP.Fitness>  (489) 


>  <PLP.PLP>  (489) 


>  <PLP.ligand.clash>  (489) 


>  <PLP.ligand.torsion>  (489) 


>  <PLP.part.buried>  (489) 


>  <PLP.part.hbond>  (489) 


>  <PLP.part.metal>  (489) 


>  <PLP.part.nonpolar>  (489) 


>  <PLP.part.repulsive>  (489) 


>  <Version>  (489) 


$$$$
3489|Compound_2131|Compounds_3D_F|sdf|625|dock1|1
     RDKit          3D

 22 24  0  0  0  0  0  0  0  0999 V2000
  -11.3343  -19.0797   10.4662 N   0  0  0  0  0  0  0  0  0  0  0  0
  -10.8420  -18.2105   11.3713 C   0  0  0  0  0  0  0  0  0  0  0  0
  -11.5824  -17.7006   12.1888 O   0  0  0  0  0  0  0  0  0  0  0  0
   -9.4035  -17.8789   11.3689 C   0  0  0  0  0  0  0  0  0  0  0  0
   -8.4771  -18.7841   10.8111 C   0  0  0  0  0  0  0  0  0  0  0  0
   -8.9174  -19.9532   10.2802 O   0  0  0  0  0  0  0  0  0  0  0  0
   -8.1574  -20.5032    9.2015 C   0  0  0  0  0  0  0  0  0  0  0  0
   -7.1445  -18.4963   10.7983 C   0  0  0  0  0  0  0  0  0  0  0  0
   -6.6818  -17.2892   11.3452 C   0  0  0  0  0  0  0  0  0  0  0  0
   -5.3075  -16.9698   11.3426 C   0  0  0  0  0  0  0  0  0  0  0  0
   -4.4069  -17.8337   10.8075 O   0  0  0  0  0  0  0  0  0  0  0  0
   -3.0691  -17.7668   11.3052 C   0  0  0  0  0  0  0  0  0  0  0  0
   -4.8884  -15.7864   11.8811 C   0  0  0  0  0  0  0  0  0  0  0  0
   -5.7995  -14.8881   12.4346 C   0  0  0  0  0  0  0  0  0  0  0  0
   -7.1317  -15.1629   12.4538 C   0  0  0  0  0  0  0  0  0  0  0  0
   -7.6050  -16.3716   11.9086 C   0  0  0  0  0  0  0  0  0  0  0  0
   -8.9731  -16.6777   11.9102 C   0  0  0  0  0  0  0  0  0  0  0  0
  -12.6971  -19.3903   10.4647 C   0  0  0  0  0  0  0  0  0  0  0  0
  -13.4703  -19.4400   11.5229 N   0  0  0  0  0  0  0  0  0  0  0  0
  -14.7545  -19.7865   11.0706 N   0  0  0  0  0  0  0  0  0  0  0  0
  -14.6629  -19.9270    9.7364 C   0  0  0  0  0  0  0  0  0  0  0  0
  -13.4277  -19.6807    9.3841 N   0  0  0  0  0  0  0  0  0  0  0  0
  1  2  1  0
  1 18  1  0
  2  3  2  0
  2  4  1  0
  4  5  2  0
  4 17  1  0
  5  6  1  0
  5  8  1  0
  6  7  1  0
  8  9  2  0
  9 10  1  0
  9 16  1  0
 10 11  1  0
 10 13  2  0
 11 12  1  0
 13 14  1  0
 14 15  2  0
 15 16  1  0
 16 17  2  0
 18 19  2  0
 18 22  1  0
 19 20  1  0
 20 21  1  0
 21 22  2  0
M  END
>  <Gold.Gold.Protein.RotatedWaterAtoms>  (490) 


>  <Gold.Id.Protein>  (490) 


>  <Gold.PLP.Chemscore.CHOScore>  (490) 
0.3363

>  <Gold.PLP.Chemscore.Hbond>  (490) 
2.5920

>  <Gold.PLP.Chemscore.Internal.Correction>  (490) 
1.5592

>  <Gold.PLP.Chemscore.Metal>  (490) 
0.0000

>  <Gold.PLP.Fitness>  (490) 
52.5906

>  <Gold.PLP.PLP>  (490) 
-44.6421

>  <Gold.PLP.ligand.clash>  (490) 
0.0000

>  <Gold.PLP.ligand.torsion>  (490) 
1.1979

>  <Gold.PLP.part.buried>  (490) 
-6.3916

>  <Gold.PLP.part.hbond>  (490) 
-3.0000

>  <Gold.PLP.part.metal>  (490) 
0.0000

>  <Gold.PLP.part.nonpolar>  (490) 
-34.8206

>  <Gold.PLP.part.repulsive>  (490) 
0.2455

>  <Gold.Protein.RotatedAtoms>  (490) 


>  <Gold.Protein.RotatedTorsions>  (490) 


>  <Gold.Protein.RotatedWaterAtoms>  (490) 


>  <Gold.Version>  (490) 
5.3.0

>  <PLP.Chemscore.CHOScore>  (490) 


>  <PLP.Chemscore.Hbond>  (490) 


>  <PLP.Chemscore.Internal.Correction>  (490) 


>  <PLP.Chemscore.Metal>  (490) 


>  <PLP.Fitness>  (490) 


>  <PLP.PLP>  (490) 


>  <PLP.ligand.clash>  (490) 


>  <PLP.ligand.torsion>  (490) 


>  <PLP.part.buried>  (490) 


>  <PLP.part.hbond>  (490) 


>  <PLP.part.metal>  (490) 


>  <PLP.part.nonpolar>  (490) 


>  <PLP.part.repulsive>  (490) 


>  <Version>  (490) 


$$$$
3490|Compound_2131|Compounds_3D_F|sdf|625|dock2|1
     RDKit          3D

 22 24  0  0  0  0  0  0  0  0999 V2000
  -11.2118  -19.0569   10.4705 N   0  0  0  0  0  0  0  0  0  0  0  0
  -10.6888  -18.1929   11.3633 C   0  0  0  0  0  0  0  0  0  0  0  0
  -11.4083  -17.6563   12.1824 O   0  0  0  0  0  0  0  0  0  0  0  0
   -9.2422  -17.8994   11.3453 C   0  0  0  0  0  0  0  0  0  0  0  0
   -8.3513  -18.8053   10.7334 C   0  0  0  0  0  0  0  0  0  0  0  0
   -8.8330  -19.9399   10.1651 O   0  0  0  0  0  0  0  0  0  0  0  0
   -8.1087  -20.4656    9.0503 C   0  0  0  0  0  0  0  0  0  0  0  0
   -7.0119  -18.5522   10.7055 C   0  0  0  0  0  0  0  0  0  0  0  0
   -6.5064  -17.3809   11.2908 C   0  0  0  0  0  0  0  0  0  0  0  0
   -5.1243  -17.0979   11.2735 C   0  0  0  0  0  0  0  0  0  0  0  0
   -4.2577  -17.9627   10.6864 O   0  0  0  0  0  0  0  0  0  0  0  0
   -2.9088  -17.9495   11.1579 C   0  0  0  0  0  0  0  0  0  0  0  0
   -4.6632  -15.9487   11.8504 C   0  0  0  0  0  0  0  0  0  0  0  0
   -5.5391  -15.0498   12.4575 C   0  0  0  0  0  0  0  0  0  0  0  0
   -6.8776  -15.2901   12.4923 C   0  0  0  0  0  0  0  0  0  0  0  0
   -7.3936  -16.4629   11.9088 C   0  0  0  0  0  0  0  0  0  0  0  0
   -8.7693  -16.7328   11.9255 C   0  0  0  0  0  0  0  0  0  0  0  0
  -12.5822  -19.3315   10.4836 C   0  0  0  0  0  0  0  0  0  0  0  0
  -13.3395  -19.3890   11.5530 N   0  0  0  0  0  0  0  0  0  0  0  0
  -14.6395  -19.6895   11.1132 N   0  0  0  0  0  0  0  0  0  0  0  0
  -14.5731  -19.7969    9.7745 C   0  0  0  0  0  0  0  0  0  0  0  0
  -13.3376  -19.5738    9.4081 N   0  0  0  0  0  0  0  0  0  0  0  0
  1  2  1  0
  1 18  1  0
  2  3  2  0
  2  4  1  0
  4  5  2  0
  4 17  1  0
  5  6  1  0
  5  8  1  0
  6  7  1  0
  8  9  2  0
  9 10  1  0
  9 16  1  0
 10 11  1  0
 10 13  2  0
 11 12  1  0
 13 14  1  0
 14 15  2  0
 15 16  1  0
 16 17  2  0
 18 19  2  0
 18 22  1  0
 19 20  1  0
 20 21  1  0
 21 22  2  0
M  END
>  <Gold.Gold.Protein.RotatedWaterAtoms>  (491) 


>  <Gold.Id.Protein>  (491) 


>  <Gold.PLP.Chemscore.CHOScore>  (491) 
0.1111

>  <Gold.PLP.Chemscore.Hbond>  (491) 
2.9600

>  <Gold.PLP.Chemscore.Internal.Correction>  (491) 
1.5544

>  <Gold.PLP.Chemscore.Metal>  (491) 
0.0000

>  <Gold.PLP.Fitness>  (491) 
52.7971

>  <Gold.PLP.PLP>  (491) 
-44.3774

>  <Gold.PLP.ligand.clash>  (491) 
0.0107

>  <Gold.PLP.ligand.torsion>  (491) 
1.1687

>  <Gold.PLP.part.buried>  (491) 
-6.4398

>  <Gold.PLP.part.hbond>  (491) 
-3.0000

>  <Gold.PLP.part.metal>  (491) 
0.0000

>  <Gold.PLP.part.nonpolar>  (491) 
-34.8692

>  <Gold.PLP.part.repulsive>  (491) 
0.2300

>  <Gold.Protein.RotatedAtoms>  (491) 


>  <Gold.Protein.RotatedTorsions>  (491) 


>  <Gold.Protein.RotatedWaterAtoms>  (491) 


>  <Gold.Version>  (491) 
5.3.0

>  <PLP.Chemscore.CHOScore>  (491) 


>  <PLP.Chemscore.Hbond>  (491) 


>  <PLP.Chemscore.Internal.Correction>  (491) 


>  <PLP.Chemscore.Metal>  (491) 


>  <PLP.Fitness>  (491) 


>  <PLP.PLP>  (491) 


>  <PLP.ligand.clash>  (491) 


>  <PLP.ligand.torsion>  (491) 


>  <PLP.part.buried>  (491) 


>  <PLP.part.hbond>  (491) 


>  <PLP.part.metal>  (491) 


>  <PLP.part.nonpolar>  (491) 


>  <PLP.part.repulsive>  (491) 


>  <Version>  (491) 


$$$$
3491|Compound_2131|Compounds_3D_F|sdf|625|dock3|1
     RDKit          3D

 22 24  0  0  0  0  0  0  0  0999 V2000
  -11.0827  -19.0185   10.4761 N   0  0  0  0  0  0  0  0  0  0  0  0
  -10.5251  -18.1795   11.3717 C   0  0  0  0  0  0  0  0  0  0  0  0
  -11.2189  -17.6349   12.2075 O   0  0  0  0  0  0  0  0  0  0  0  0
   -9.0718  -17.9230   11.3367 C   0  0  0  0  0  0  0  0  0  0  0  0
   -8.2141  -18.8396   10.6940 C   0  0  0  0  0  0  0  0  0  0  0  0
   -8.7338  -19.9504   10.1121 O   0  0  0  0  0  0  0  0  0  0  0  0
   -8.0268  -20.4873    8.9915 C   0  0  0  0  0  0  0  0  0  0  0  0
   -6.8691  -18.6206   10.6499 C   0  0  0  0  0  0  0  0  0  0  0  0
   -6.3246  -17.4741   11.2491 C   0  0  0  0  0  0  0  0  0  0  0  0
   -4.9360  -17.2265   11.2156 C   0  0  0  0  0  0  0  0  0  0  0  0
   -4.1012  -18.1019   10.5989 O   0  0  0  0  0  0  0  0  0  0  0  0
   -2.7452  -18.1319   11.0488 C   0  0  0  0  0  0  0  0  0  0  0  0
   -4.4364  -16.1008   11.8066 C   0  0  0  0  0  0  0  0  0  0  0  0
   -5.2794  -15.1915   12.4441 C   0  0  0  0  0  0  0  0  0  0  0  0
   -6.6230  -15.3978   12.4953 C   0  0  0  0  0  0  0  0  0  0  0  0
   -7.1781  -16.5456   11.8980 C   0  0  0  0  0  0  0  0  0  0  0  0
   -8.5599  -16.7803   11.9312 C   0  0  0  0  0  0  0  0  0  0  0  0
  -12.4594  -19.2579   10.5054 C   0  0  0  0  0  0  0  0  0  0  0  0
  -13.1785  -19.4493   11.5855 N   0  0  0  0  0  0  0  0  0  0  0  0
  -14.5023  -19.6513   11.1604 N   0  0  0  0  0  0  0  0  0  0  0  0
  -14.4880  -19.5672    9.8185 C   0  0  0  0  0  0  0  0  0  0  0  0
  -13.2605  -19.3247    9.4379 N   0  0  0  0  0  0  0  0  0  0  0  0
  1  2  1  0
  1 18  1  0
  2  3  2  0
  2  4  1  0
  4  5  2  0
  4 17  1  0
  5  6  1  0
  5  8  1  0
  6  7  1  0
  8  9  2  0
  9 10  1  0
  9 16  1  0
 10 11  1  0
 10 13  2  0
 11 12  1  0
 13 14  1  0
 14 15  2  0
 15 16  1  0
 16 17  2  0
 18 19  2  0
 18 22  1  0
 19 20  1  0
 20 21  1  0
 21 22  2  0
M  END
>  <Gold.Gold.Protein.RotatedWaterAtoms>  (492) 


>  <Gold.Id.Protein>  (492) 


>  <Gold.PLP.Chemscore.CHOScore>  (492) 
0.0000

>  <Gold.PLP.Chemscore.Hbond>  (492) 
3.0000

>  <Gold.PLP.Chemscore.Internal.Correction>  (492) 
1.5544

>  <Gold.PLP.Chemscore.Metal>  (492) 
0.0000

>  <Gold.PLP.Fitness>  (492) 
52.6718

>  <Gold.PLP.PLP>  (492) 
-44.6476

>  <Gold.PLP.ligand.clash>  (492) 
0.0154

>  <Gold.PLP.ligand.torsion>  (492) 
1.2574

>  <Gold.PLP.part.buried>  (492) 
-6.7397

>  <Gold.PLP.part.hbond>  (492) 
-3.0000

>  <Gold.PLP.part.metal>  (492) 
0.0000

>  <Gold.PLP.part.nonpolar>  (492) 
-34.7895

>  <Gold.PLP.part.repulsive>  (492) 
0.2203

>  <Gold.Protein.RotatedAtoms>  (492) 


>  <Gold.Protein.RotatedTorsions>  (492) 


>  <Gold.Protein.RotatedWaterAtoms>  (492) 


>  <Gold.Version>  (492) 
5.3.0

>  <PLP.Chemscore.CHOScore>  (492) 


>  <PLP.Chemscore.Hbond>  (492) 


>  <PLP.Chemscore.Internal.Correction>  (492) 


>  <PLP.Chemscore.Metal>  (492) 


>  <PLP.Fitness>  (492) 


>  <PLP.PLP>  (492) 


>  <PLP.ligand.clash>  (492) 


>  <PLP.ligand.torsion>  (492) 


>  <PLP.part.buried>  (492) 


>  <PLP.part.hbond>  (492) 


>  <PLP.part.metal>  (492) 


>  <PLP.part.nonpolar>  (492) 


>  <PLP.part.repulsive>  (492) 


>  <Version>  (492) 


$$$$
3492|Compound_2133|Compounds_3D_F|sdf|626|dock1|1
     RDKit          3D

 26 28  0  0  0  0  0  0  0  0999 V2000
  -10.3556  -18.9758   11.5013 N   0  0  0  0  0  0  0  0  0  0  0  0
  -10.3068  -17.6566   11.7726 C   0  0  0  0  0  0  0  0  0  0  0  0
  -11.2040  -17.1312   12.4021 O   0  0  0  0  0  0  0  0  0  0  0  0
   -9.1605  -16.8479   11.3047 C   0  0  0  0  0  0  0  0  0  0  0  0
   -8.5398  -15.9469   12.1696 C   0  0  0  0  0  0  0  0  0  0  0  0
   -7.4674  -15.1927   11.7243 C   0  0  0  0  0  0  0  0  0  0  0  0
   -6.8597  -14.3133   12.5632 O   0  0  0  0  0  0  0  0  0  0  0  0
   -6.9951  -12.9861   12.3044 C   0  0  0  0  0  0  0  0  0  0  0  0
   -8.2123  -12.4858   11.8646 C   0  0  0  0  0  0  0  0  0  0  0  0
   -8.3485  -11.1359   11.6023 C   0  0  0  0  0  0  0  0  0  0  0  0
   -7.2728  -10.2850   11.7777 C   0  0  0  0  0  0  0  0  0  0  0  0
   -6.0593  -10.7811   12.2162 C   0  0  0  0  0  0  0  0  0  0  0  0
   -5.9191  -12.1293   12.4840 C   0  0  0  0  0  0  0  0  0  0  0  0
   -7.0115  -15.3352   10.4203 C   0  0  0  0  0  0  0  0  0  0  0  0
   -7.6255  -16.2284    9.5614 C   0  0  0  0  0  0  0  0  0  0  0  0
   -8.6924  -16.9882    9.9966 C   0  0  0  0  0  0  0  0  0  0  0  0
  -11.4346  -19.7343   11.9365 C   0  0  0  0  0  0  0  0  0  0  0  0
  -11.3959  -20.2808   13.1417 N   0  0  0  0  0  0  0  0  0  0  0  0
  -12.4061  -21.0091   13.5871 C   0  0  0  0  0  0  0  0  0  0  0  0
  -13.5136  -21.1955   12.7751 C   0  0  0  0  0  0  0  0  0  0  0  0
  -13.5214  -20.6095   11.5192 C   0  0  0  0  0  0  0  0  0  0  0  0
  -12.4789  -19.8888   11.1373 N   0  0  0  0  0  0  0  0  0  0  0  0
  -12.3546  -21.6279   14.9598 C   0  0  0  0  0  0  0  0  0  0  0  0
  -13.4778  -21.2292   15.6928 F   0  0  0  0  0  0  0  0  0  0  0  0
  -12.3449  -23.0220   14.8438 F   0  0  0  0  0  0  0  0  0  0  0  0
  -11.1948  -21.2057   15.6189 F   0  0  0  0  0  0  0  0  0  0  0  0
  1  2  1  0
  1 17  1  0
  2  3  2  0
  2  4  1  0
  4  5  2  0
  4 16  1  0
  5  6  1  0
  6  7  1  0
  6 14  2  0
  7  8  1  0
  8  9  2  0
  8 13  1  0
  9 10  1  0
 10 11  2  0
 11 12  1  0
 12 13  2  0
 14 15  1  0
 15 16  2  0
 17 18  2  0
 17 22  1  0
 18 19  1  0
 19 20  2  0
 19 23  1  0
 20 21  1  0
 21 22  2  0
 23 24  1  0
 23 25  1  0
 23 26  1  0
M  END
>  <Gold.Gold.Protein.RotatedWaterAtoms>  (493) 


>  <Gold.Id.Protein>  (493) 


>  <Gold.PLP.Chemscore.CHOScore>  (493) 
0.0000

>  <Gold.PLP.Chemscore.Hbond>  (493) 
2.0000

>  <Gold.PLP.Chemscore.Internal.Correction>  (493) 
0.4825

>  <Gold.PLP.Chemscore.Metal>  (493) 
0.0000

>  <Gold.PLP.Fitness>  (493) 
66.7635

>  <Gold.PLP.PLP>  (493) 
-64.1706

>  <Gold.PLP.ligand.clash>  (493) 
0.0000

>  <Gold.PLP.ligand.torsion>  (493) 
1.9448

>  <Gold.PLP.part.buried>  (493) 
-7.6098

>  <Gold.PLP.part.hbond>  (493) 
-2.6166

>  <Gold.PLP.part.metal>  (493) 
0.0000

>  <Gold.PLP.part.nonpolar>  (493) 
-54.0015

>  <Gold.PLP.part.repulsive>  (493) 
0.2849

>  <Gold.Protein.RotatedAtoms>  (493) 


>  <Gold.Protein.RotatedTorsions>  (493) 


>  <Gold.Protein.RotatedWaterAtoms>  (493) 


>  <Gold.Version>  (493) 
5.3.0

>  <PLP.Chemscore.CHOScore>  (493) 


>  <PLP.Chemscore.Hbond>  (493) 


>  <PLP.Chemscore.Internal.Correction>  (493) 


>  <PLP.Chemscore.Metal>  (493) 


>  <PLP.Fitness>  (493) 


>  <PLP.PLP>  (493) 


>  <PLP.ligand.clash>  (493) 


>  <PLP.ligand.torsion>  (493) 


>  <PLP.part.buried>  (493) 


>  <PLP.part.hbond>  (493) 


>  <PLP.part.metal>  (493) 


>  <PLP.part.nonpolar>  (493) 


>  <PLP.part.repulsive>  (493) 


>  <Version>  (493) 


$$$$
3493|Compound_2133|Compounds_3D_F|sdf|626|dock2|1
     RDKit          3D

 26 28  0  0  0  0  0  0  0  0999 V2000
  -10.3780  -18.7234    9.7400 N   0  0  0  0  0  0  0  0  0  0  0  0
   -9.9766  -17.9212   10.7458 C   0  0  0  0  0  0  0  0  0  0  0  0
  -10.7969  -17.4253   11.4931 O   0  0  0  0  0  0  0  0  0  0  0  0
   -8.5370  -17.6448   10.9409 C   0  0  0  0  0  0  0  0  0  0  0  0
   -8.1284  -16.6660   11.8465 C   0  0  0  0  0  0  0  0  0  0  0  0
   -6.7787  -16.4124   12.0235 C   0  0  0  0  0  0  0  0  0  0  0  0
   -6.3759  -15.4594   12.9045 O   0  0  0  0  0  0  0  0  0  0  0  0
   -6.5799  -14.1571   12.5741 C   0  0  0  0  0  0  0  0  0  0  0  0
   -5.5107  -13.2731   12.5456 C   0  0  0  0  0  0  0  0  0  0  0  0
   -5.7198  -11.9493   12.2088 C   0  0  0  0  0  0  0  0  0  0  0  0
   -6.9929  -11.5063   11.9011 C   0  0  0  0  0  0  0  0  0  0  0  0
   -8.0595  -12.3853   11.9283 C   0  0  0  0  0  0  0  0  0  0  0  0
   -7.8552  -13.7109   12.2601 C   0  0  0  0  0  0  0  0  0  0  0  0
   -5.8359  -17.1323   11.3015 C   0  0  0  0  0  0  0  0  0  0  0  0
   -6.2392  -18.1035   10.4033 C   0  0  0  0  0  0  0  0  0  0  0  0
   -7.5818  -18.3672   10.2227 C   0  0  0  0  0  0  0  0  0  0  0  0
  -11.7304  -18.9791    9.5539 C   0  0  0  0  0  0  0  0  0  0  0  0
  -12.1154  -20.1958    9.2019 N   0  0  0  0  0  0  0  0  0  0  0  0
  -13.3952  -20.4733    9.0162 C   0  0  0  0  0  0  0  0  0  0  0  0
  -14.3361  -19.4716    9.1956 C   0  0  0  0  0  0  0  0  0  0  0  0
  -13.8988  -18.2092    9.5639 C   0  0  0  0  0  0  0  0  0  0  0  0
  -12.6033  -18.0006    9.7378 N   0  0  0  0  0  0  0  0  0  0  0  0
  -13.8255  -21.8604    8.6156 C   0  0  0  0  0  0  0  0  0  0  0  0
  -14.7042  -22.3714    9.5772 F   0  0  0  0  0  0  0  0  0  0  0  0
  -14.4708  -21.8095    7.3754 F   0  0  0  0  0  0  0  0  0  0  0  0
  -12.7021  -22.6896    8.5242 F   0  0  0  0  0  0  0  0  0  0  0  0
  1  2  1  0
  1 17  1  0
  2  3  2  0
  2  4  1  0
  4  5  2  0
  4 16  1  0
  5  6  1  0
  6  7  1  0
  6 14  2  0
  7  8  1  0
  8  9  2  0
  8 13  1  0
  9 10  1  0
 10 11  2  0
 11 12  1  0
 12 13  2  0
 14 15  1  0
 15 16  2  0
 17 18  2  0
 17 22  1  0
 18 19  1  0
 19 20  2  0
 19 23  1  0
 20 21  1  0
 21 22  2  0
 23 24  1  0
 23 25  1  0
 23 26  1  0
M  END
>  <Gold.Gold.Protein.RotatedWaterAtoms>  (494) 


>  <Gold.Id.Protein>  (494) 


>  <Gold.PLP.Chemscore.CHOScore>  (494) 
0.0000

>  <Gold.PLP.Chemscore.Hbond>  (494) 
1.0000

>  <Gold.PLP.Chemscore.Internal.Correction>  (494) 
0.4825

>  <Gold.PLP.Chemscore.Metal>  (494) 
0.0000

>  <Gold.PLP.Fitness>  (494) 
70.5166

>  <Gold.PLP.PLP>  (494) 
-68.1230

>  <Gold.PLP.ligand.clash>  (494) 
0.1210

>  <Gold.PLP.ligand.torsion>  (494) 
0.4840

>  <Gold.PLP.part.buried>  (494) 
-10.1965

>  <Gold.PLP.part.hbond>  (494) 
-1.7884

>  <Gold.PLP.part.metal>  (494) 
0.0000

>  <Gold.PLP.part.nonpolar>  (494) 
-56.0158

>  <Gold.PLP.part.repulsive>  (494) 
0.2287

>  <Gold.Protein.RotatedAtoms>  (494) 


>  <Gold.Protein.RotatedTorsions>  (494) 


>  <Gold.Protein.RotatedWaterAtoms>  (494) 


>  <Gold.Version>  (494) 
5.3.0

>  <PLP.Chemscore.CHOScore>  (494) 


>  <PLP.Chemscore.Hbond>  (494) 


>  <PLP.Chemscore.Internal.Correction>  (494) 


>  <PLP.Chemscore.Metal>  (494) 


>  <PLP.Fitness>  (494) 


>  <PLP.PLP>  (494) 


>  <PLP.ligand.clash>  (494) 


>  <PLP.ligand.torsion>  (494) 


>  <PLP.part.buried>  (494) 


>  <PLP.part.hbond>  (494) 


>  <PLP.part.metal>  (494) 


>  <PLP.part.nonpolar>  (494) 


>  <PLP.part.repulsive>  (494) 


>  <Version>  (494) 


$$$$
3494|Compound_2133|Compounds_3D_F|sdf|626|dock3|1
     RDKit          3D

 26 28  0  0  0  0  0  0  0  0999 V2000
  -10.3208  -19.1522   11.4603 N   0  0  0  0  0  0  0  0  0  0  0  0
  -10.2401  -17.8284   11.6992 C   0  0  0  0  0  0  0  0  0  0  0  0
  -11.1315  -17.2634   12.3023 O   0  0  0  0  0  0  0  0  0  0  0  0
   -9.0660  -17.0627   11.2282 C   0  0  0  0  0  0  0  0  0  0  0  0
   -8.4249  -16.1671   12.0838 C   0  0  0  0  0  0  0  0  0  0  0  0
   -7.3264  -15.4533   11.6356 C   0  0  0  0  0  0  0  0  0  0  0  0
   -6.6987  -14.5793   12.4655 O   0  0  0  0  0  0  0  0  0  0  0  0
   -6.8978  -13.2504   12.2623 C   0  0  0  0  0  0  0  0  0  0  0  0
   -8.1345  -12.7923   11.8311 C   0  0  0  0  0  0  0  0  0  0  0  0
   -8.3355  -11.4407   11.6254 C   0  0  0  0  0  0  0  0  0  0  0  0
   -7.3051  -10.5461   11.8488 C   0  0  0  0  0  0  0  0  0  0  0  0
   -6.0723  -11.0001   12.2789 C   0  0  0  0  0  0  0  0  0  0  0  0
   -5.8674  -12.3501   12.4902 C   0  0  0  0  0  0  0  0  0  0  0  0
   -6.8648  -15.6306   10.3379 C   0  0  0  0  0  0  0  0  0  0  0  0
   -7.4990  -16.5184    9.4882 C   0  0  0  0  0  0  0  0  0  0  0  0
   -8.5920  -17.2382    9.9265 C   0  0  0  0  0  0  0  0  0  0  0  0
  -11.4259  -19.8704   11.8984 C   0  0  0  0  0  0  0  0  0  0  0  0
  -11.4220  -20.3805   13.1200 N   0  0  0  0  0  0  0  0  0  0  0  0
  -12.4577  -21.0699   13.5687 C   0  0  0  0  0  0  0  0  0  0  0  0
  -13.5552  -21.2539   12.7426 C   0  0  0  0  0  0  0  0  0  0  0  0
  -13.5262  -20.7066   11.4697 C   0  0  0  0  0  0  0  0  0  0  0  0
  -12.4596  -20.0238   11.0852 N   0  0  0  0  0  0  0  0  0  0  0  0
  -12.4458  -21.6473   14.9602 C   0  0  0  0  0  0  0  0  0  0  0  0
  -11.3092  -21.1979   15.6413 F   0  0  0  0  0  0  0  0  0  0  0  0
  -13.5932  -21.2357   15.6466 F   0  0  0  0  0  0  0  0  0  0  0  0
  -12.4218  -23.0444   14.8857 F   0  0  0  0  0  0  0  0  0  0  0  0
  1  2  1  0
  1 17  1  0
  2  3  2  0
  2  4  1  0
  4  5  2  0
  4 16  1  0
  5  6  1  0
  6  7  1  0
  6 14  2  0
  7  8  1  0
  8  9  2  0
  8 13  1  0
  9 10  1  0
 10 11  2  0
 11 12  1  0
 12 13  2  0
 14 15  1  0
 15 16  2  0
 17 18  2  0
 17 22  1  0
 18 19  1  0
 19 20  2  0
 19 23  1  0
 20 21  1  0
 21 22  2  0
 23 24  1  0
 23 25  1  0
 23 26  1  0
M  END
>  <Gold.Gold.Protein.RotatedWaterAtoms>  (495) 


>  <Gold.Id.Protein>  (495) 


>  <Gold.PLP.Chemscore.CHOScore>  (495) 
0.0000

>  <Gold.PLP.Chemscore.Hbond>  (495) 
2.0000

>  <Gold.PLP.Chemscore.Internal.Correction>  (495) 
0.4825

>  <Gold.PLP.Chemscore.Metal>  (495) 
0.0000

>  <Gold.PLP.Fitness>  (495) 
66.9164

>  <Gold.PLP.PLP>  (495) 
-64.8282

>  <Gold.PLP.ligand.clash>  (495) 
0.0000

>  <Gold.PLP.ligand.torsion>  (495) 
2.1971

>  <Gold.PLP.part.buried>  (495) 
-10.1833

>  <Gold.PLP.part.hbond>  (495) 
-2.3978

>  <Gold.PLP.part.metal>  (495) 
0.0000

>  <Gold.PLP.part.nonpolar>  (495) 
-52.5985

>  <Gold.PLP.part.repulsive>  (495) 
0.2540

>  <Gold.Protein.RotatedAtoms>  (495) 


>  <Gold.Protein.RotatedTorsions>  (495) 


>  <Gold.Protein.RotatedWaterAtoms>  (495) 


>  <Gold.Version>  (495) 
5.3.0

>  <PLP.Chemscore.CHOScore>  (495) 


>  <PLP.Chemscore.Hbond>  (495) 


>  <PLP.Chemscore.Internal.Correction>  (495) 


>  <PLP.Chemscore.Metal>  (495) 


>  <PLP.Fitness>  (495) 


>  <PLP.PLP>  (495) 


>  <PLP.ligand.clash>  (495) 


>  <PLP.ligand.torsion>  (495) 


>  <PLP.part.buried>  (495) 


>  <PLP.part.hbond>  (495) 


>  <PLP.part.metal>  (495) 


>  <PLP.part.nonpolar>  (495) 


>  <PLP.part.repulsive>  (495) 


>  <Version>  (495) 


$$$$
3495|Compound_2133|Compounds_3D_F|sdf|626|dock4|1
     RDKit          3D

 26 28  0  0  0  0  0  0  0  0999 V2000
  -11.4045  -18.4018    9.3086 N   0  0  0  0  0  0  0  0  0  0  0  0
  -10.6259  -18.1082   10.3687 C   0  0  0  0  0  0  0  0  0  0  0  0
  -10.9384  -18.4931   11.4784 O   0  0  0  0  0  0  0  0  0  0  0  0
   -9.3900  -17.3180   10.1816 C   0  0  0  0  0  0  0  0  0  0  0  0
   -8.7530  -16.7435   11.2812 C   0  0  0  0  0  0  0  0  0  0  0  0
   -7.5964  -16.0045   11.0982 C   0  0  0  0  0  0  0  0  0  0  0  0
   -6.9725  -15.4426   12.1666 O   0  0  0  0  0  0  0  0  0  0  0  0
   -6.8104  -14.0934   12.1746 C   0  0  0  0  0  0  0  0  0  0  0  0
   -5.5764  -13.5449   12.4937 C   0  0  0  0  0  0  0  0  0  0  0  0
   -5.4132  -12.1727   12.5008 C   0  0  0  0  0  0  0  0  0  0  0  0
   -6.4785  -11.3475   12.1908 C   0  0  0  0  0  0  0  0  0  0  0  0
   -7.7086  -11.8917   11.8721 C   0  0  0  0  0  0  0  0  0  0  0  0
   -7.8760  -13.2632   11.8593 C   0  0  0  0  0  0  0  0  0  0  0  0
   -7.0729  -15.8377    9.8228 C   0  0  0  0  0  0  0  0  0  0  0  0
   -7.7031  -16.4069    8.7312 C   0  0  0  0  0  0  0  0  0  0  0  0
   -8.8539  -17.1491    8.9033 C   0  0  0  0  0  0  0  0  0  0  0  0
  -12.5677  -19.1399    9.4851 C   0  0  0  0  0  0  0  0  0  0  0  0
  -12.7186  -20.2761    8.8228 N   0  0  0  0  0  0  0  0  0  0  0  0
  -13.8139  -21.0032    8.9675 C   0  0  0  0  0  0  0  0  0  0  0  0
  -14.8088  -20.5619    9.8256 C   0  0  0  0  0  0  0  0  0  0  0  0
  -14.6186  -19.3681   10.5032 C   0  0  0  0  0  0  0  0  0  0  0  0
  -13.4964  -18.6918   10.3158 N   0  0  0  0  0  0  0  0  0  0  0  0
  -13.9784  -22.2953    8.2102 C   0  0  0  0  0  0  0  0  0  0  0  0
  -12.8508  -22.5135    7.4110 F   0  0  0  0  0  0  0  0  0  0  0  0
  -14.1195  -23.3526    9.1154 F   0  0  0  0  0  0  0  0  0  0  0  0
  -15.1161  -22.2194    7.3992 F   0  0  0  0  0  0  0  0  0  0  0  0
  1  2  1  0
  1 17  1  0
  2  3  2  0
  2  4  1  0
  4  5  2  0
  4 16  1  0
  5  6  1  0
  6  7  1  0
  6 14  2  0
  7  8  1  0
  8  9  2  0
  8 13  1  0
  9 10  1  0
 10 11  2  0
 11 12  1  0
 12 13  2  0
 14 15  1  0
 15 16  2  0
 17 18  2  0
 17 22  1  0
 18 19  1  0
 19 20  2  0
 19 23  1  0
 20 21  1  0
 21 22  2  0
 23 24  1  0
 23 25  1  0
 23 26  1  0
M  END
>  <Gold.Gold.Protein.RotatedWaterAtoms>  (496) 


>  <Gold.Id.Protein>  (496) 


>  <Gold.PLP.Chemscore.CHOScore>  (496) 
1.0000

>  <Gold.PLP.Chemscore.Hbond>  (496) 
0.0000

>  <Gold.PLP.Chemscore.Internal.Correction>  (496) 
0.4825

>  <Gold.PLP.Chemscore.Metal>  (496) 
0.0000

>  <Gold.PLP.Fitness>  (496) 
65.2756

>  <Gold.PLP.PLP>  (496) 
-63.3653

>  <Gold.PLP.ligand.clash>  (496) 
0.0000

>  <Gold.PLP.ligand.torsion>  (496) 
0.7861

>  <Gold.PLP.part.buried>  (496) 
-10.9881

>  <Gold.PLP.part.hbond>  (496) 
0.0000

>  <Gold.PLP.part.metal>  (496) 
0.0000

>  <Gold.PLP.part.nonpolar>  (496) 
-52.9580

>  <Gold.PLP.part.repulsive>  (496) 
0.3058

>  <Gold.Protein.RotatedAtoms>  (496) 


>  <Gold.Protein.RotatedTorsions>  (496) 


>  <Gold.Protein.RotatedWaterAtoms>  (496) 


>  <Gold.Version>  (496) 
5.3.0

>  <PLP.Chemscore.CHOScore>  (496) 


>  <PLP.Chemscore.Hbond>  (496) 


>  <PLP.Chemscore.Internal.Correction>  (496) 


>  <PLP.Chemscore.Metal>  (496) 


>  <PLP.Fitness>  (496) 


>  <PLP.PLP>  (496) 


>  <PLP.ligand.clash>  (496) 


>  <PLP.ligand.torsion>  (496) 


>  <PLP.part.buried>  (496) 


>  <PLP.part.hbond>  (496) 


>  <PLP.part.metal>  (496) 


>  <PLP.part.nonpolar>  (496) 


>  <PLP.part.repulsive>  (496) 


>  <Version>  (496) 


$$$$
3496|Compound_2133|Compounds_3D_F|sdf|626|dock5|1
     RDKit          3D

 26 28  0  0  0  0  0  0  0  0999 V2000
  -10.5532  -18.7623    9.6781 N   0  0  0  0  0  0  0  0  0  0  0  0
  -10.0882  -18.1504   10.7852 C   0  0  0  0  0  0  0  0  0  0  0  0
  -10.8480  -17.8755   11.6932 O   0  0  0  0  0  0  0  0  0  0  0  0
   -8.6524  -17.8138   10.8957 C   0  0  0  0  0  0  0  0  0  0  0  0
   -8.2230  -16.8777   11.8361 C   0  0  0  0  0  0  0  0  0  0  0  0
   -6.8771  -16.5673   11.9334 C   0  0  0  0  0  0  0  0  0  0  0  0
   -6.4541  -15.6555   12.8478 O   0  0  0  0  0  0  0  0  0  0  0  0
   -6.5678  -14.3378   12.5356 C   0  0  0  0  0  0  0  0  0  0  0  0
   -5.4941  -13.4822   12.7369 C   0  0  0  0  0  0  0  0  0  0  0  0
   -5.6111  -12.1426   12.4183 C   0  0  0  0  0  0  0  0  0  0  0  0
   -6.7969  -11.6557   11.8999 C   0  0  0  0  0  0  0  0  0  0  0  0
   -7.8677  -12.5063   11.6980 C   0  0  0  0  0  0  0  0  0  0  0  0
   -7.7545  -13.8474   12.0109 C   0  0  0  0  0  0  0  0  0  0  0  0
   -5.9586  -17.1882   11.0971 C   0  0  0  0  0  0  0  0  0  0  0  0
   -6.3826  -18.1169   10.1642 C   0  0  0  0  0  0  0  0  0  0  0  0
   -7.7212  -18.4368   10.0621 C   0  0  0  0  0  0  0  0  0  0  0  0
  -11.9025  -19.0739    9.5724 C   0  0  0  0  0  0  0  0  0  0  0  0
  -12.2565  -20.2681    9.1240 N   0  0  0  0  0  0  0  0  0  0  0  0
  -13.5325  -20.5974    9.0106 C   0  0  0  0  0  0  0  0  0  0  0  0
  -14.5022  -19.6744    9.3689 C   0  0  0  0  0  0  0  0  0  0  0  0
  -14.0970  -18.4335    9.8343 C   0  0  0  0  0  0  0  0  0  0  0  0
  -12.8031  -18.1705    9.9274 N   0  0  0  0  0  0  0  0  0  0  0  0
  -13.9275  -21.9584    8.4995 C   0  0  0  0  0  0  0  0  0  0  0  0
  -14.7709  -21.8135    7.3925 F   0  0  0  0  0  0  0  0  0  0  0  0
  -12.7814  -22.6666    8.1224 F   0  0  0  0  0  0  0  0  0  0  0  0
  -14.5990  -22.6589    9.5077 F   0  0  0  0  0  0  0  0  0  0  0  0
  1  2  1  0
  1 17  1  0
  2  3  2  0
  2  4  1  0
  4  5  2  0
  4 16  1  0
  5  6  1  0
  6  7  1  0
  6 14  2  0
  7  8  1  0
  8  9  2  0
  8 13  1  0
  9 10  1  0
 10 11  2  0
 11 12  1  0
 12 13  2  0
 14 15  1  0
 15 16  2  0
 17 18  2  0
 17 22  1  0
 18 19  1  0
 19 20  2  0
 19 23  1  0
 20 21  1  0
 21 22  2  0
 23 24  1  0
 23 25  1  0
 23 26  1  0
M  END
>  <Gold.Gold.Protein.RotatedWaterAtoms>  (497) 


>  <Gold.Id.Protein>  (497) 


>  <Gold.PLP.Chemscore.CHOScore>  (497) 
0.0000

>  <Gold.PLP.Chemscore.Hbond>  (497) 
1.0000

>  <Gold.PLP.Chemscore.Internal.Correction>  (497) 
0.4552

>  <Gold.PLP.Chemscore.Metal>  (497) 
0.0000

>  <Gold.PLP.Fitness>  (497) 
68.7259

>  <Gold.PLP.PLP>  (497) 
-67.2816

>  <Gold.PLP.ligand.clash>  (497) 
0.0000

>  <Gold.PLP.ligand.torsion>  (497) 
1.0054

>  <Gold.PLP.part.buried>  (497) 
-10.7131

>  <Gold.PLP.part.hbond>  (497) 
-1.3951

>  <Gold.PLP.part.metal>  (497) 
0.0000

>  <Gold.PLP.part.nonpolar>  (497) 
-55.3414

>  <Gold.PLP.part.repulsive>  (497) 
0.2204

>  <Gold.Protein.RotatedAtoms>  (497) 


>  <Gold.Protein.RotatedTorsions>  (497) 


>  <Gold.Protein.RotatedWaterAtoms>  (497) 


>  <Gold.Version>  (497) 
5.3.0

>  <PLP.Chemscore.CHOScore>  (497) 


>  <PLP.Chemscore.Hbond>  (497) 


>  <PLP.Chemscore.Internal.Correction>  (497) 


>  <PLP.Chemscore.Metal>  (497) 


>  <PLP.Fitness>  (497) 


>  <PLP.PLP>  (497) 


>  <PLP.ligand.clash>  (497) 


>  <PLP.ligand.torsion>  (497) 


>  <PLP.part.buried>  (497) 


>  <PLP.part.hbond>  (497) 


>  <PLP.part.metal>  (497) 


>  <PLP.part.nonpolar>  (497) 


>  <PLP.part.repulsive>  (497) 


>  <Version>  (497) 


$$$$
3497|Compound_2133|Compounds_3D_F|sdf|626|dock6|1
     RDKit          3D

 26 28  0  0  0  0  0  0  0  0999 V2000
  -11.6521  -18.4007    9.2882 N   0  0  0  0  0  0  0  0  0  0  0  0
  -10.7759  -18.2573   10.3020 C   0  0  0  0  0  0  0  0  0  0  0  0
  -10.9459  -18.8608   11.3433 O   0  0  0  0  0  0  0  0  0  0  0  0
   -9.6064  -17.3656   10.1473 C   0  0  0  0  0  0  0  0  0  0  0  0
   -8.9861  -16.8227   11.2723 C   0  0  0  0  0  0  0  0  0  0  0  0
   -7.8918  -15.9882   11.1195 C   0  0  0  0  0  0  0  0  0  0  0  0
   -7.2843  -15.4567   12.2127 O   0  0  0  0  0  0  0  0  0  0  0  0
   -7.0172  -14.1242   12.2102 C   0  0  0  0  0  0  0  0  0  0  0  0
   -5.7420  -13.6719   12.5177 C   0  0  0  0  0  0  0  0  0  0  0  0
   -5.4718  -12.3166   12.5142 C   0  0  0  0  0  0  0  0  0  0  0  0
   -6.4714  -11.4127   12.2049 C   0  0  0  0  0  0  0  0  0  0  0  0
   -7.7424  -11.8610   11.8977 C   0  0  0  0  0  0  0  0  0  0  0  0
   -8.0167  -13.2152   11.8956 C   0  0  0  0  0  0  0  0  0  0  0  0
   -7.4137  -15.6946    9.8492 C   0  0  0  0  0  0  0  0  0  0  0  0
   -8.0274  -16.2323    8.7325 C   0  0  0  0  0  0  0  0  0  0  0  0
   -9.1160  -17.0688    8.8739 C   0  0  0  0  0  0  0  0  0  0  0  0
  -12.7532  -19.2345    9.4353 C   0  0  0  0  0  0  0  0  0  0  0  0
  -12.7915  -20.3778    8.7690 N   0  0  0  0  0  0  0  0  0  0  0  0
  -13.8250  -21.1948    8.8860 C   0  0  0  0  0  0  0  0  0  0  0  0
  -14.8744  -20.8408    9.7191 C   0  0  0  0  0  0  0  0  0  0  0  0
  -14.8022  -19.6369   10.4018 C   0  0  0  0  0  0  0  0  0  0  0  0
  -13.7366  -18.8681   10.2428 N   0  0  0  0  0  0  0  0  0  0  0  0
  -13.8613  -22.4941    8.1243 C   0  0  0  0  0  0  0  0  0  0  0  0
  -13.9031  -23.5623    9.0272 F   0  0  0  0  0  0  0  0  0  0  0  0
  -14.9989  -22.5272    7.3108 F   0  0  0  0  0  0  0  0  0  0  0  0
  -12.7149  -22.6014    7.3292 F   0  0  0  0  0  0  0  0  0  0  0  0
  1  2  1  0
  1 17  1  0
  2  3  2  0
  2  4  1  0
  4  5  2  0
  4 16  1  0
  5  6  1  0
  6  7  1  0
  6 14  2  0
  7  8  1  0
  8  9  2  0
  8 13  1  0
  9 10  1  0
 10 11  2  0
 11 12  1  0
 12 13  2  0
 14 15  1  0
 15 16  2  0
 17 18  2  0
 17 22  1  0
 18 19  1  0
 19 20  2  0
 19 23  1  0
 20 21  1  0
 21 22  2  0
 23 24  1  0
 23 25  1  0
 23 26  1  0
M  END
>  <Gold.Gold.Protein.RotatedWaterAtoms>  (498) 


>  <Gold.Id.Protein>  (498) 


>  <Gold.PLP.Chemscore.CHOScore>  (498) 
1.0000

>  <Gold.PLP.Chemscore.Hbond>  (498) 
0.0000

>  <Gold.PLP.Chemscore.Internal.Correction>  (498) 
0.4552

>  <Gold.PLP.Chemscore.Metal>  (498) 
0.0000

>  <Gold.PLP.Fitness>  (498) 
64.1480

>  <Gold.PLP.PLP>  (498) 
-62.9585

>  <Gold.PLP.ligand.clash>  (498) 
0.0000

>  <Gold.PLP.ligand.torsion>  (498) 
1.1328

>  <Gold.PLP.part.buried>  (498) 
-10.5861

>  <Gold.PLP.part.hbond>  (498) 
0.0000

>  <Gold.PLP.part.metal>  (498) 
0.0000

>  <Gold.PLP.part.nonpolar>  (498) 
-52.8457

>  <Gold.PLP.part.repulsive>  (498) 
0.3293

>  <Gold.Protein.RotatedAtoms>  (498) 


>  <Gold.Protein.RotatedTorsions>  (498) 


>  <Gold.Protein.RotatedWaterAtoms>  (498) 


>  <Gold.Version>  (498) 
5.3.0

>  <PLP.Chemscore.CHOScore>  (498) 


>  <PLP.Chemscore.Hbond>  (498) 


>  <PLP.Chemscore.Internal.Correction>  (498) 


>  <PLP.Chemscore.Metal>  (498) 


>  <PLP.Fitness>  (498) 


>  <PLP.PLP>  (498) 


>  <PLP.ligand.clash>  (498) 


>  <PLP.ligand.torsion>  (498) 


>  <PLP.part.buried>  (498) 


>  <PLP.part.hbond>  (498) 


>  <PLP.part.metal>  (498) 


>  <PLP.part.nonpolar>  (498) 


>  <PLP.part.repulsive>  (498) 


>  <Version>  (498) 


$$$$
3498|Compound_2133|Compounds_3D_F|sdf|626|dock7|1
     RDKit          3D

 26 28  0  0  0  0  0  0  0  0999 V2000
  -11.0398  -18.9389    9.5964 N   0  0  0  0  0  0  0  0  0  0  0  0
  -10.3299  -18.6999   10.7167 C   0  0  0  0  0  0  0  0  0  0  0  0
  -10.8029  -18.9640   11.8048 O   0  0  0  0  0  0  0  0  0  0  0  0
   -8.9742  -18.1168   10.6222 C   0  0  0  0  0  0  0  0  0  0  0  0
   -8.4732  -17.3369   11.6642 C   0  0  0  0  0  0  0  0  0  0  0  0
   -7.2032  -16.7938   11.5684 C   0  0  0  0  0  0  0  0  0  0  0  0
   -6.7110  -16.0329   12.5810 O   0  0  0  0  0  0  0  0  0  0  0  0
   -6.7435  -14.6818   12.4385 C   0  0  0  0  0  0  0  0  0  0  0  0
   -7.9270  -14.0500   12.0843 C   0  0  0  0  0  0  0  0  0  0  0  0
   -7.9586  -12.6759   11.9404 C   0  0  0  0  0  0  0  0  0  0  0  0
   -6.8119  -11.9319   12.1488 C   0  0  0  0  0  0  0  0  0  0  0  0
   -5.6318  -12.5591   12.5022 C   0  0  0  0  0  0  0  0  0  0  0  0
   -5.5959  -13.9322   12.6516 C   0  0  0  0  0  0  0  0  0  0  0  0
   -6.4312  -17.0269   10.4378 C   0  0  0  0  0  0  0  0  0  0  0  0
   -6.9262  -17.8004    9.4037 C   0  0  0  0  0  0  0  0  0  0  0  0
   -8.1891  -18.3501    9.4912 C   0  0  0  0  0  0  0  0  0  0  0  0
  -12.3150  -19.4821    9.6855 C   0  0  0  0  0  0  0  0  0  0  0  0
  -12.6114  -20.5556    8.9698 N   0  0  0  0  0  0  0  0  0  0  0  0
  -13.8161  -21.0980    9.0308 C   0  0  0  0  0  0  0  0  0  0  0  0
  -14.7717  -20.5287    9.8575 C   0  0  0  0  0  0  0  0  0  0  0  0
  -14.4281  -19.4054   10.5929 C   0  0  0  0  0  0  0  0  0  0  0  0
  -13.2028  -18.9160   10.4884 N   0  0  0  0  0  0  0  0  0  0  0  0
  -14.1459  -22.3196    8.2131 C   0  0  0  0  0  0  0  0  0  0  0  0
  -14.4528  -23.3837    9.0684 F   0  0  0  0  0  0  0  0  0  0  0  0
  -15.2462  -22.0495    7.3925 F   0  0  0  0  0  0  0  0  0  0  0  0
  -13.0448  -22.6622    7.4206 F   0  0  0  0  0  0  0  0  0  0  0  0
  1  2  1  0
  1 17  1  0
  2  3  2  0
  2  4  1  0
  4  5  2  0
  4 16  1  0
  5  6  1  0
  6  7  1  0
  6 14  2  0
  7  8  1  0
  8  9  2  0
  8 13  1  0
  9 10  1  0
 10 11  2  0
 11 12  1  0
 12 13  2  0
 14 15  1  0
 15 16  2  0
 17 18  2  0
 17 22  1  0
 18 19  1  0
 19 20  2  0
 19 23  1  0
 20 21  1  0
 21 22  2  0
 23 24  1  0
 23 25  1  0
 23 26  1  0
M  END
>  <Gold.Gold.Protein.RotatedWaterAtoms>  (499) 


>  <Gold.Id.Protein>  (499) 


>  <Gold.PLP.Chemscore.CHOScore>  (499) 
0.9975

>  <Gold.PLP.Chemscore.Hbond>  (499) 
0.0000

>  <Gold.PLP.Chemscore.Internal.Correction>  (499) 
0.4552

>  <Gold.PLP.Chemscore.Metal>  (499) 
0.0000

>  <Gold.PLP.Fitness>  (499) 
62.5110

>  <Gold.PLP.PLP>  (499) 
-61.4156

>  <Gold.PLP.ligand.clash>  (499) 
0.0000

>  <Gold.PLP.ligand.torsion>  (499) 
1.1762

>  <Gold.PLP.part.buried>  (499) 
-10.5648

>  <Gold.PLP.part.hbond>  (499) 
0.0000

>  <Gold.PLP.part.metal>  (499) 
0.0000

>  <Gold.PLP.part.nonpolar>  (499) 
-51.9362

>  <Gold.PLP.part.repulsive>  (499) 
0.2445

>  <Gold.Protein.RotatedAtoms>  (499) 


>  <Gold.Protein.RotatedTorsions>  (499) 


>  <Gold.Protein.RotatedWaterAtoms>  (499) 


>  <Gold.Version>  (499) 
5.3.0

>  <PLP.Chemscore.CHOScore>  (499) 


>  <PLP.Chemscore.Hbond>  (499) 


>  <PLP.Chemscore.Internal.Correction>  (499) 


>  <PLP.Chemscore.Metal>  (499) 


>  <PLP.Fitness>  (499) 


>  <PLP.PLP>  (499) 


>  <PLP.ligand.clash>  (499) 


>  <PLP.ligand.torsion>  (499) 


>  <PLP.part.buried>  (499) 


>  <PLP.part.hbond>  (499) 


>  <PLP.part.metal>  (499) 


>  <PLP.part.nonpolar>  (499) 


>  <PLP.part.repulsive>  (499) 


>  <Version>  (499) 


$$$$
3499|Compound_2133|Compounds_3D_F|sdf|626|dock8|1
     RDKit          3D

 26 28  0  0  0  0  0  0  0  0999 V2000
  -10.7755  -18.8857   10.0404 N   0  0  0  0  0  0  0  0  0  0  0  0
  -10.2162  -18.3975   11.1652 C   0  0  0  0  0  0  0  0  0  0  0  0
  -10.8514  -18.3768   12.2013 O   0  0  0  0  0  0  0  0  0  0  0  0
   -8.8284  -17.8874   11.1390 C   0  0  0  0  0  0  0  0  0  0  0  0
   -8.4452  -16.8560   11.9960 C   0  0  0  0  0  0  0  0  0  0  0  0
   -7.1441  -16.3832   11.9654 C   0  0  0  0  0  0  0  0  0  0  0  0
   -6.7663  -15.3781   12.7983 O   0  0  0  0  0  0  0  0  0  0  0  0
   -7.0783  -14.1038   12.4439 C   0  0  0  0  0  0  0  0  0  0  0  0
   -8.3659  -13.7947   12.0293 C   0  0  0  0  0  0  0  0  0  0  0  0
   -8.6817  -12.4983   11.6698 C   0  0  0  0  0  0  0  0  0  0  0  0
   -7.7154  -11.5107   11.7229 C   0  0  0  0  0  0  0  0  0  0  0  0
   -6.4321  -11.8162   12.1361 C   0  0  0  0  0  0  0  0  0  0  0  0
   -6.1123  -13.1099   12.5007 C   0  0  0  0  0  0  0  0  0  0  0  0
   -6.2243  -16.9364   11.0843 C   0  0  0  0  0  0  0  0  0  0  0  0
   -6.6024  -17.9595   10.2341 C   0  0  0  0  0  0  0  0  0  0  0  0
   -7.8956  -18.4411   10.2597 C   0  0  0  0  0  0  0  0  0  0  0  0
  -12.0806  -19.3602   10.0639 C   0  0  0  0  0  0  0  0  0  0  0  0
  -12.3935  -20.4263    9.3442 N   0  0  0  0  0  0  0  0  0  0  0  0
  -13.6268  -20.9042    9.3436 C   0  0  0  0  0  0  0  0  0  0  0  0
  -14.5951  -20.2746   10.1096 C   0  0  0  0  0  0  0  0  0  0  0  0
  -14.2336  -19.1610   10.8511 C   0  0  0  0  0  0  0  0  0  0  0  0
  -12.9802  -18.7377   10.8100 N   0  0  0  0  0  0  0  0  0  0  0  0
  -13.9751  -22.1179    8.5218 C   0  0  0  0  0  0  0  0  0  0  0  0
  -14.9617  -21.7810    7.5886 F   0  0  0  0  0  0  0  0  0  0  0  0
  -12.8343  -22.5708    7.8506 F   0  0  0  0  0  0  0  0  0  0  0  0
  -14.4549  -23.1286    9.3621 F   0  0  0  0  0  0  0  0  0  0  0  0
  1  2  1  0
  1 17  1  0
  2  3  2  0
  2  4  1  0
  4  5  2  0
  4 16  1  0
  5  6  1  0
  6  7  1  0
  6 14  2  0
  7  8  1  0
  8  9  2  0
  8 13  1  0
  9 10  1  0
 10 11  2  0
 11 12  1  0
 12 13  2  0
 14 15  1  0
 15 16  2  0
 17 18  2  0
 17 22  1  0
 18 19  1  0
 19 20  2  0
 19 23  1  0
 20 21  1  0
 21 22  2  0
 23 24  1  0
 23 25  1  0
 23 26  1  0
M  END
>  <Gold.Gold.Protein.RotatedWaterAtoms>  (500) 


>  <Gold.Id.Protein>  (500) 


>  <Gold.PLP.Chemscore.CHOScore>  (500) 
0.9980

>  <Gold.PLP.Chemscore.Hbond>  (500) 
0.7963

>  <Gold.PLP.Chemscore.Internal.Correction>  (500) 
0.4552

>  <Gold.PLP.Chemscore.Metal>  (500) 
0.0000

>  <Gold.PLP.Fitness>  (500) 
64.7582

>  <Gold.PLP.PLP>  (500) 
-61.1068

>  <Gold.PLP.ligand.clash>  (500) 
0.0000

>  <Gold.PLP.ligand.torsion>  (500) 
1.0933

>  <Gold.PLP.part.buried>  (500) 
-9.5125

>  <Gold.PLP.part.hbond>  (500) 
-0.8743

>  <Gold.PLP.part.metal>  (500) 
0.0000

>  <Gold.PLP.part.nonpolar>  (500) 
-52.6661

>  <Gold.PLP.part.repulsive>  (500) 
0.2260

>  <Gold.Protein.RotatedAtoms>  (500) 


>  <Gold.Protein.RotatedTorsions>  (500) 


>  <Gold.Protein.RotatedWaterAtoms>  (500) 


>  <Gold.Version>  (500) 
5.3.0

>  <PLP.Chemscore.CHOScore>  (500) 


>  <PLP.Chemscore.Hbond>  (500) 


>  <PLP.Chemscore.Internal.Correction>  (500) 


>  <PLP.Chemscore.Metal>  (500) 


>  <PLP.Fitness>  (500) 


>  <PLP.PLP>  (500) 


>  <PLP.ligand.clash>  (500) 


>  <PLP.ligand.torsion>  (500) 


>  <PLP.part.buried>  (500) 


>  <PLP.part.hbond>  (500) 


>  <PLP.part.metal>  (500) 


>  <PLP.part.nonpolar>  (500) 


>  <PLP.part.repulsive>  (500) 


>  <Version>  (500) 


$$$$
3500|Compound_2133|Compounds_3D_F|sdf|626|dock9|1
     RDKit          3D

 26 28  0  0  0  0  0  0  0  0999 V2000
  -10.5080  -19.2083    9.5328 N   0  0  0  0  0  0  0  0  0  0  0  0
  -10.0896  -18.2150   10.3418 C   0  0  0  0  0  0  0  0  0  0  0  0
  -10.9007  -17.5020   10.8995 O   0  0  0  0  0  0  0  0  0  0  0  0
   -8.6427  -17.9930   10.5519 C   0  0  0  0  0  0  0  0  0  0  0  0
   -8.2051  -17.1371   11.5623 C   0  0  0  0  0  0  0  0  0  0  0  0
   -6.8488  -16.9337   11.7527 C   0  0  0  0  0  0  0  0  0  0  0  0
   -6.4177  -16.1004   12.7357 O   0  0  0  0  0  0  0  0  0  0  0  0
   -6.5552  -14.7620   12.5443 C   0  0  0  0  0  0  0  0  0  0  0  0
   -7.7920  -14.2337   12.2027 C   0  0  0  0  0  0  0  0  0  0  0  0
   -7.9302  -12.8725   12.0088 C   0  0  0  0  0  0  0  0  0  0  0  0
   -6.8372  -12.0383   12.1548 C   0  0  0  0  0  0  0  0  0  0  0  0
   -5.6043  -12.5623   12.4955 C   0  0  0  0  0  0  0  0  0  0  0  0
   -5.4616  -13.9221   12.6947 C   0  0  0  0  0  0  0  0  0  0  0  0
   -5.9281  -17.5818   10.9398 C   0  0  0  0  0  0  0  0  0  0  0  0
   -6.3602  -18.4312    9.9376 C   0  0  0  0  0  0  0  0  0  0  0  0
   -7.7098  -18.6443    9.7423 C   0  0  0  0  0  0  0  0  0  0  0  0
  -11.8668  -19.4137    9.3317 C   0  0  0  0  0  0  0  0  0  0  0  0
  -12.3062  -20.6388    9.0897 N   0  0  0  0  0  0  0  0  0  0  0  0
  -13.5936  -20.8695    8.8934 C   0  0  0  0  0  0  0  0  0  0  0  0
  -14.4849  -19.8093    8.9447 C   0  0  0  0  0  0  0  0  0  0  0  0
  -13.9913  -18.5398    9.2001 C   0  0  0  0  0  0  0  0  0  0  0  0
  -12.6915  -18.3795    9.3918 N   0  0  0  0  0  0  0  0  0  0  0  0
  -14.0860  -22.2665    8.6185 C   0  0  0  0  0  0  0  0  0  0  0  0
  -15.0187  -22.2349    7.5759 F   0  0  0  0  0  0  0  0  0  0  0  0
  -13.0070  -23.0788    8.2537 F   0  0  0  0  0  0  0  0  0  0  0  0
  -14.6916  -22.7830    9.7693 F   0  0  0  0  0  0  0  0  0  0  0  0
  1  2  1  0
  1 17  1  0
  2  3  2  0
  2  4  1  0
  4  5  2  0
  4 16  1  0
  5  6  1  0
  6  7  1  0
  6 14  2  0
  7  8  1  0
  8  9  2  0
  8 13  1  0
  9 10  1  0
 10 11  2  0
 11 12  1  0
 12 13  2  0
 14 15  1  0
 15 16  2  0
 17 18  2  0
 17 22  1  0
 18 19  1  0
 19 20  2  0
 19 23  1  0
 20 21  1  0
 21 22  2  0
 23 24  1  0
 23 25  1  0
 23 26  1  0
M  END
>  <Gold.Gold.Protein.RotatedWaterAtoms>  (501) 


>  <Gold.Id.Protein>  (501) 


>  <Gold.PLP.Chemscore.CHOScore>  (501) 
0.0000

>  <Gold.PLP.Chemscore.Hbond>  (501) 
1.0000

>  <Gold.PLP.Chemscore.Internal.Correction>  (501) 
0.4552

>  <Gold.PLP.Chemscore.Metal>  (501) 
0.0000

>  <Gold.PLP.Fitness>  (501) 
68.0543

>  <Gold.PLP.PLP>  (501) 
-66.8160

>  <Gold.PLP.ligand.clash>  (501) 
0.0000

>  <Gold.PLP.ligand.torsion>  (501) 
1.1084

>  <Gold.PLP.part.buried>  (501) 
-11.3552

>  <Gold.PLP.part.hbond>  (501) 
-0.7468

>  <Gold.PLP.part.metal>  (501) 
0.0000

>  <Gold.PLP.part.nonpolar>  (501) 
-55.2932

>  <Gold.PLP.part.repulsive>  (501) 
0.2029

>  <Gold.Protein.RotatedAtoms>  (501) 


>  <Gold.Protein.RotatedTorsions>  (501) 


>  <Gold.Protein.RotatedWaterAtoms>  (501) 


>  <Gold.Version>  (501) 
5.3.0

>  <PLP.Chemscore.CHOScore>  (501) 


>  <PLP.Chemscore.Hbond>  (501) 


>  <PLP.Chemscore.Internal.Correction>  (501) 


>  <PLP.Chemscore.Metal>  (501) 


>  <PLP.Fitness>  (501) 


>  <PLP.PLP>  (501) 


>  <PLP.ligand.clash>  (501) 


>  <PLP.ligand.torsion>  (501) 


>  <PLP.part.buried>  (501) 


>  <PLP.part.hbond>  (501) 


>  <PLP.part.metal>  (501) 


>  <PLP.part.nonpolar>  (501) 


>  <PLP.part.repulsive>  (501) 


>  <Version>  (501) 


$$$$
3501|Compound_2134|Compounds_3D_F|sdf|627|dock1|1
     RDKit          3D

 26 29  0  0  0  0  0  0  0  0999 V2000
  -13.9537  -20.6282   14.6106 O   0  0  0  0  0  0  0  0  0  0  0  0
  -13.2761  -20.7205   13.4415 C   0  0  0  0  0  0  0  0  0  0  0  0
  -13.6326  -21.6852   12.4800 C   0  0  0  0  0  0  0  0  0  0  0  0
  -14.5756  -22.6417   12.4183 N   0  0  0  0  0  0  0  0  0  0  0  0
  -14.4915  -23.2760   11.3014 N   0  0  0  0  0  0  0  0  0  0  0  0
  -13.4401  -22.7423   10.5410 N   0  0  0  0  0  0  0  0  0  0  0  0
  -12.8932  -21.7331   11.2843 C   0  0  0  0  0  0  0  0  0  0  0  0
  -11.8925  -20.8763   11.1055 N   0  0  0  0  0  0  0  0  0  0  0  0
  -11.5937  -19.9880   12.0367 C   0  0  0  0  0  0  0  0  0  0  0  0
  -12.2683  -19.9026   13.1771 N   0  0  0  0  0  0  0  0  0  0  0  0
  -10.5412  -19.1098   11.8138 N   0  0  0  0  0  0  0  0  0  0  0  0
  -10.3813  -18.5435   10.6011 C   0  0  0  0  0  0  0  0  0  0  0  0
  -11.1588  -18.7995    9.7030 O   0  0  0  0  0  0  0  0  0  0  0  0
   -9.2611  -17.6087   10.3642 C   0  0  0  0  0  0  0  0  0  0  0  0
   -8.6251  -16.9909   11.4414 C   0  0  0  0  0  0  0  0  0  0  0  0
   -7.5771  -16.1156   11.2107 C   0  0  0  0  0  0  0  0  0  0  0  0
   -6.9540  -15.5119   12.2571 O   0  0  0  0  0  0  0  0  0  0  0  0
   -6.8378  -14.1586   12.2359 C   0  0  0  0  0  0  0  0  0  0  0  0
   -5.6184  -13.5608   12.5216 C   0  0  0  0  0  0  0  0  0  0  0  0
   -5.5034  -12.1843   12.4992 C   0  0  0  0  0  0  0  0  0  0  0  0
   -6.6010  -11.4021   12.1925 C   0  0  0  0  0  0  0  0  0  0  0  0
   -7.8172  -11.9950   11.9059 C   0  0  0  0  0  0  0  0  0  0  0  0
   -7.9367  -13.3710   11.9225 C   0  0  0  0  0  0  0  0  0  0  0  0
   -7.1611  -15.8550    9.9122 C   0  0  0  0  0  0  0  0  0  0  0  0
   -7.7911  -16.4662    8.8432 C   0  0  0  0  0  0  0  0  0  0  0  0
   -8.8331  -17.3443    9.0620 C   0  0  0  0  0  0  0  0  0  0  0  0
  1  2  1  0
  2  3  2  0
  2 10  1  0
  3  4  1  0
  3  7  1  0
  4  5  2  0
  5  6  1  0
  6  7  1  0
  7  8  2  0
  8  9  1  0
  9 10  2  0
  9 11  1  0
 11 12  1  0
 12 13  2  0
 12 14  1  0
 14 15  2  0
 14 26  1  0
 15 16  1  0
 16 17  1  0
 16 24  2  0
 17 18  1  0
 18 19  2  0
 18 23  1  0
 19 20  1  0
 20 21  2  0
 21 22  1  0
 22 23  2  0
 24 25  1  0
 25 26  2  0
M  END
>  <Gold.Gold.Protein.RotatedWaterAtoms>  (502) 


>  <Gold.Id.Protein>  (502) 


>  <Gold.PLP.Chemscore.CHOScore>  (502) 
0.0000

>  <Gold.PLP.Chemscore.Hbond>  (502) 
3.0382

>  <Gold.PLP.Chemscore.Internal.Correction>  (502) 
0.4290

>  <Gold.PLP.Chemscore.Metal>  (502) 
0.0000

>  <Gold.PLP.Fitness>  (502) 
63.4479

>  <Gold.PLP.PLP>  (502) 
-55.3115

>  <Gold.PLP.ligand.clash>  (502) 
0.0000

>  <Gold.PLP.ligand.torsion>  (502) 
0.7036

>  <Gold.PLP.part.buried>  (502) 
-11.7360

>  <Gold.PLP.part.hbond>  (502) 
-4.5161

>  <Gold.PLP.part.metal>  (502) 
0.0000

>  <Gold.PLP.part.nonpolar>  (502) 
-39.7342

>  <Gold.PLP.part.repulsive>  (502) 
0.3605

>  <Gold.Protein.RotatedAtoms>  (502) 


>  <Gold.Protein.RotatedTorsions>  (502) 


>  <Gold.Protein.RotatedWaterAtoms>  (502) 


>  <Gold.Version>  (502) 
5.3.0

>  <PLP.Chemscore.CHOScore>  (502) 


>  <PLP.Chemscore.Hbond>  (502) 


>  <PLP.Chemscore.Internal.Correction>  (502) 


>  <PLP.Chemscore.Metal>  (502) 


>  <PLP.Fitness>  (502) 


>  <PLP.PLP>  (502) 


>  <PLP.ligand.clash>  (502) 


>  <PLP.ligand.torsion>  (502) 


>  <PLP.part.buried>  (502) 


>  <PLP.part.hbond>  (502) 


>  <PLP.part.metal>  (502) 


>  <PLP.part.nonpolar>  (502) 


>  <PLP.part.repulsive>  (502) 


>  <Version>  (502) 


$$$$
3502|Compound_2134|Compounds_3D_F|sdf|627|dock2|1
     RDKit          3D

 26 29  0  0  0  0  0  0  0  0999 V2000
  -13.6530  -20.2665   14.2531 O   0  0  0  0  0  0  0  0  0  0  0  0
  -13.0474  -20.5370   13.0722 C   0  0  0  0  0  0  0  0  0  0  0  0
  -13.5101  -21.5835   12.2519 C   0  0  0  0  0  0  0  0  0  0  0  0
  -14.5074  -22.4799   12.3510 N   0  0  0  0  0  0  0  0  0  0  0  0
  -14.5209  -23.2446   11.3156 N   0  0  0  0  0  0  0  0  0  0  0  0
  -13.4849  -22.8701   10.4468 N   0  0  0  0  0  0  0  0  0  0  0  0
  -12.8419  -21.8169   11.0362 C   0  0  0  0  0  0  0  0  0  0  0  0
  -11.8061  -21.0510   10.7078 N   0  0  0  0  0  0  0  0  0  0  0  0
  -11.4068  -20.0803   11.5101 C   0  0  0  0  0  0  0  0  0  0  0  0
  -12.0113  -19.8201   12.6632 N   0  0  0  0  0  0  0  0  0  0  0  0
  -10.3205  -19.3015   11.1328 N   0  0  0  0  0  0  0  0  0  0  0  0
  -10.2551  -18.0087   11.5087 C   0  0  0  0  0  0  0  0  0  0  0  0
  -11.1453  -17.5245   12.1792 O   0  0  0  0  0  0  0  0  0  0  0  0
   -9.0987  -17.1803   11.1071 C   0  0  0  0  0  0  0  0  0  0  0  0
   -8.5346  -16.2801   12.0116 C   0  0  0  0  0  0  0  0  0  0  0  0
   -7.4521  -15.5069   11.6270 C   0  0  0  0  0  0  0  0  0  0  0  0
   -6.8987  -14.6291   12.5051 O   0  0  0  0  0  0  0  0  0  0  0  0
   -7.0747  -13.3016   12.2765 C   0  0  0  0  0  0  0  0  0  0  0  0
   -8.3043  -12.8281   11.8408 C   0  0  0  0  0  0  0  0  0  0  0  0
   -8.4803  -11.4775   11.6092 C   0  0  0  0  0  0  0  0  0  0  0  0
   -7.4334  -10.5977   11.8109 C   0  0  0  0  0  0  0  0  0  0  0  0
   -6.2072  -11.0664   12.2464 C   0  0  0  0  0  0  0  0  0  0  0  0
   -6.0271  -12.4152   12.4839 C   0  0  0  0  0  0  0  0  0  0  0  0
   -6.9302  -15.6282   10.3464 C   0  0  0  0  0  0  0  0  0  0  0  0
   -7.4889  -16.5196    9.4483 C   0  0  0  0  0  0  0  0  0  0  0  0
   -8.5645  -17.2990    9.8228 C   0  0  0  0  0  0  0  0  0  0  0  0
  1  2  1  0
  2  3  2  0
  2 10  1  0
  3  4  1  0
  3  7  1  0
  4  5  2  0
  5  6  1  0
  6  7  1  0
  7  8  2  0
  8  9  1  0
  9 10  2  0
  9 11  1  0
 11 12  1  0
 12 13  2  0
 12 14  1  0
 14 15  2  0
 14 26  1  0
 15 16  1  0
 16 17  1  0
 16 24  2  0
 17 18  1  0
 18 19  2  0
 18 23  1  0
 19 20  1  0
 20 21  2  0
 21 22  1  0
 22 23  2  0
 24 25  1  0
 25 26  2  0
M  END
>  <Gold.Gold.Protein.RotatedWaterAtoms>  (503) 


>  <Gold.Id.Protein>  (503) 


>  <Gold.PLP.Chemscore.CHOScore>  (503) 
0.0000

>  <Gold.PLP.Chemscore.Hbond>  (503) 
3.2541

>  <Gold.PLP.Chemscore.Internal.Correction>  (503) 
0.4290

>  <Gold.PLP.Chemscore.Metal>  (503) 
0.0000

>  <Gold.PLP.Fitness>  (503) 
63.1951

>  <Gold.PLP.PLP>  (503) 
-55.4149

>  <Gold.PLP.ligand.clash>  (503) 
0.0000

>  <Gold.PLP.ligand.torsion>  (503) 
1.2055

>  <Gold.PLP.part.buried>  (503) 
-10.5091

>  <Gold.PLP.part.hbond>  (503) 
-5.7893

>  <Gold.PLP.part.metal>  (503) 
0.0000

>  <Gold.PLP.part.nonpolar>  (503) 
-40.1102

>  <Gold.PLP.part.repulsive>  (503) 
0.3883

>  <Gold.Protein.RotatedAtoms>  (503) 


>  <Gold.Protein.RotatedTorsions>  (503) 


>  <Gold.Protein.RotatedWaterAtoms>  (503) 


>  <Gold.Version>  (503) 
5.3.0

>  <PLP.Chemscore.CHOScore>  (503) 


>  <PLP.Chemscore.Hbond>  (503) 


>  <PLP.Chemscore.Internal.Correction>  (503) 


>  <PLP.Chemscore.Metal>  (503) 


>  <PLP.Fitness>  (503) 


>  <PLP.PLP>  (503) 


>  <PLP.ligand.clash>  (503) 


>  <PLP.ligand.torsion>  (503) 


>  <PLP.part.buried>  (503) 


>  <PLP.part.hbond>  (503) 


>  <PLP.part.metal>  (503) 


>  <PLP.part.nonpolar>  (503) 


>  <PLP.part.repulsive>  (503) 


>  <Version>  (503) 


$$$$
3503|Compound_2134|Compounds_3D_F|sdf|627|dock3|1
     RDKit          3D

 26 29  0  0  0  0  0  0  0  0999 V2000
  -14.1237  -20.5281   14.4308 O   0  0  0  0  0  0  0  0  0  0  0  0
  -13.3065  -20.6877   13.3624 C   0  0  0  0  0  0  0  0  0  0  0  0
  -13.4544  -21.7947   12.5053 C   0  0  0  0  0  0  0  0  0  0  0  0
  -14.2896  -22.8479   12.4718 N   0  0  0  0  0  0  0  0  0  0  0  0
  -14.0145  -23.6002   11.4641 N   0  0  0  0  0  0  0  0  0  0  0  0
  -12.9350  -23.0522   10.7551 N   0  0  0  0  0  0  0  0  0  0  0  0
  -12.5772  -21.9071   11.4114 C   0  0  0  0  0  0  0  0  0  0  0  0
  -11.6471  -20.9752   11.2272 N   0  0  0  0  0  0  0  0  0  0  0  0
  -11.5455  -19.9534   12.0587 C   0  0  0  0  0  0  0  0  0  0  0  0
  -12.3555  -19.8038   13.0999 N   0  0  0  0  0  0  0  0  0  0  0  0
  -10.5609  -19.0001   11.8336 N   0  0  0  0  0  0  0  0  0  0  0  0
  -10.1276  -18.7618   10.5797 C   0  0  0  0  0  0  0  0  0  0  0  0
  -10.5993  -19.3794    9.6455 O   0  0  0  0  0  0  0  0  0  0  0  0
   -9.0798  -17.7471   10.3405 C   0  0  0  0  0  0  0  0  0  0  0  0
   -8.4603  -17.1130   11.4179 C   0  0  0  0  0  0  0  0  0  0  0  0
   -7.4804  -16.1627   11.1852 C   0  0  0  0  0  0  0  0  0  0  0  0
   -6.8735  -15.5428   12.2317 O   0  0  0  0  0  0  0  0  0  0  0  0
   -6.8178  -14.1856   12.2241 C   0  0  0  0  0  0  0  0  0  0  0  0
   -5.6156  -13.5376   12.4707 C   0  0  0  0  0  0  0  0  0  0  0  0
   -5.5621  -12.1571   12.4623 C   0  0  0  0  0  0  0  0  0  0  0  0
   -6.7041  -11.4209   12.2086 C   0  0  0  0  0  0  0  0  0  0  0  0
   -7.9034  -12.0638   11.9610 C   0  0  0  0  0  0  0  0  0  0  0  0
   -7.9616  -13.4438   11.9637 C   0  0  0  0  0  0  0  0  0  0  0  0
   -7.1158  -15.8432    9.8843 C   0  0  0  0  0  0  0  0  0  0  0  0
   -7.7297  -16.4704    8.8151 C   0  0  0  0  0  0  0  0  0  0  0  0
   -8.7036  -17.4229    9.0358 C   0  0  0  0  0  0  0  0  0  0  0  0
  1  2  1  0
  2  3  2  0
  2 10  1  0
  3  4  1  0
  3  7  1  0
  4  5  2  0
  5  6  1  0
  6  7  1  0
  7  8  2  0
  8  9  1  0
  9 10  2  0
  9 11  1  0
 11 12  1  0
 12 13  2  0
 12 14  1  0
 14 15  2  0
 14 26  1  0
 15 16  1  0
 16 17  1  0
 16 24  2  0
 17 18  1  0
 18 19  2  0
 18 23  1  0
 19 20  1  0
 20 21  2  0
 21 22  1  0
 22 23  2  0
 24 25  1  0
 25 26  2  0
M  END
>  <Gold.Gold.Protein.RotatedWaterAtoms>  (504) 


>  <Gold.Id.Protein>  (504) 


>  <Gold.PLP.Chemscore.CHOScore>  (504) 
0.0000

>  <Gold.PLP.Chemscore.Hbond>  (504) 
2.9487

>  <Gold.PLP.Chemscore.Internal.Correction>  (504) 
0.4120

>  <Gold.PLP.Chemscore.Metal>  (504) 
0.0000

>  <Gold.PLP.Fitness>  (504) 
61.4880

>  <Gold.PLP.PLP>  (504) 
-53.8129

>  <Gold.PLP.ligand.clash>  (504) 
0.8298

>  <Gold.PLP.ligand.torsion>  (504) 
0.3765

>  <Gold.PLP.part.buried>  (504) 
-11.1785

>  <Gold.PLP.part.hbond>  (504) 
-4.8681

>  <Gold.PLP.part.metal>  (504) 
0.0000

>  <Gold.PLP.part.nonpolar>  (504) 
-38.8191

>  <Gold.PLP.part.repulsive>  (504) 
0.3281

>  <Gold.Protein.RotatedAtoms>  (504) 


>  <Gold.Protein.RotatedTorsions>  (504) 


>  <Gold.Protein.RotatedWaterAtoms>  (504) 


>  <Gold.Version>  (504) 
5.3.0

>  <PLP.Chemscore.CHOScore>  (504) 


>  <PLP.Chemscore.Hbond>  (504) 


>  <PLP.Chemscore.Internal.Correction>  (504) 


>  <PLP.Chemscore.Metal>  (504) 


>  <PLP.Fitness>  (504) 


>  <PLP.PLP>  (504) 


>  <PLP.ligand.clash>  (504) 


>  <PLP.ligand.torsion>  (504) 


>  <PLP.part.buried>  (504) 


>  <PLP.part.hbond>  (504) 


>  <PLP.part.metal>  (504) 


>  <PLP.part.nonpolar>  (504) 


>  <PLP.part.repulsive>  (504) 


>  <Version>  (504) 


$$$$
3504|Compound_2138|Compounds_3D_F|sdf|628|dock1|1
     RDKit          3D

 38 42  0  0  0  0  0  0  0  0999 V2000
   -8.3898  -19.4947    7.5176 O   0  0  0  0  0  0  0  0  0  0  0  0
   -8.6277  -19.3429    8.8427 C   0  0  0  0  0  0  0  0  0  0  0  0
   -9.1853  -20.3884    9.5940 C   0  0  0  0  0  0  0  0  0  0  0  0
   -9.5933  -21.6514    9.3129 N   0  0  0  0  0  0  0  0  0  0  0  0
  -10.0438  -22.2123   10.3971 C   0  0  0  0  0  0  0  0  0  0  0  0
   -9.9527  -21.3433   11.4443 N   0  0  0  0  0  0  0  0  0  0  0  0
   -9.4109  -20.1767   10.9658 C   0  0  0  0  0  0  0  0  0  0  0  0
   -9.0912  -19.0039   11.5000 N   0  0  0  0  0  0  0  0  0  0  0  0
   -8.5687  -18.0455   10.7540 C   0  0  0  0  0  0  0  0  0  0  0  0
   -8.3348  -18.2050    9.4573 N   0  0  0  0  0  0  0  0  0  0  0  0
   -8.2476  -16.8315   11.3485 N   0  0  0  0  0  0  0  0  0  0  0  0
   -7.1758  -16.1351   10.9225 C   0  0  0  0  0  0  0  0  0  0  0  0
   -6.4897  -16.5685   10.0176 O   0  0  0  0  0  0  0  0  0  0  0  0
   -6.8348  -14.8428   11.5551 C   0  0  0  0  0  0  0  0  0  0  0  0
   -5.5961  -14.6705   12.1740 C   0  0  0  0  0  0  0  0  0  0  0  0
   -5.2838  -13.4622   12.7621 C   0  0  0  0  0  0  0  0  0  0  0  0
   -6.1969  -12.4225   12.7396 C   0  0  0  0  0  0  0  0  0  0  0  0
   -7.4275  -12.5877   12.1278 C   0  0  0  0  0  0  0  0  0  0  0  0
   -7.7492  -13.7880   11.5310 C   0  0  0  0  0  0  0  0  0  0  0  0
   -9.0893  -13.9657   10.8654 C   0  0  0  0  0  0  0  0  0  0  0  0
   -4.6002  -15.8019   12.1999 C   0  0  0  0  0  0  0  0  0  0  0  0
  -10.3584  -21.6067   12.8274 C   0  0  0  0  0  0  0  0  0  0  0  0
   -9.5477  -22.6638   13.3834 O   0  0  0  0  0  0  0  0  0  0  0  0
  -10.4075  -23.6839   13.8614 C   0  0  0  0  0  0  0  0  0  0  0  0
   -9.8740  -25.1009   13.8608 C   0  0  0  0  0  0  0  0  0  0  0  0
  -10.8676  -25.9219   14.5204 O   0  0  0  0  0  0  0  0  0  0  0  0
  -12.4273  -25.8290   14.0779 P   0  0  0  0  0  0  0  0  0  0  0  0
  -13.2977  -26.2107   15.2122 O   0  0  0  0  0  0  0  0  0  0  0  0
  -12.7018  -26.8003   12.8236 O   0  0  0  0  0  0  0  0  0  0  0  0
  -12.7079  -24.2785   13.6570 O   0  0  0  0  0  0  0  0  0  0  0  0
  -11.6545  -23.6154   12.9383 C   0  0  0  0  0  0  0  0  0  0  0  0
  -11.8347  -22.0842   12.8615 C   0  0  0  0  0  0  0  0  0  0  0  0
  -12.5462  -21.7033   11.6540 O   0  0  0  0  0  0  0  0  0  0  0  0
  -13.8713  -21.9164   11.6344 C   0  0  0  0  0  0  0  0  0  0  0  0
  -14.4131  -22.4372   12.5804 O   0  0  0  0  0  0  0  0  0  0  0  0
  -14.6834  -21.5046   10.4338 C   0  0  0  0  0  0  0  0  0  0  0  0
  -14.7978  -19.9792   10.3934 C   0  0  0  0  0  0  0  0  0  0  0  0
  -13.7825  -19.4182    9.3964 C   0  0  0  0  0  0  0  0  0  0  0  0
  1  2  1  0
  2  3  2  0
  2 10  1  0
  3  4  1  0
  3  7  1  0
  4  5  2  0
  5  6  1  0
  6  7  1  0
  6 22  1  0
  7  8  2  0
  8  9  1  0
  9 10  2  0
  9 11  1  0
 11 12  1  0
 12 13  2  0
 12 14  1  0
 14 15  2  0
 14 19  1  0
 15 16  1  0
 15 21  1  0
 16 17  2  0
 17 18  1  0
 18 19  2  0
 19 20  1  0
 22 23  1  0
 22 32  1  0
 23 24  1  0
 24 25  1  0
 24 31  1  0
 25 26  1  0
 26 27  1  0
 27 28  2  0
 27 29  1  0
 27 30  1  0
 30 31  1  0
 31 32  1  0
 32 33  1  0
 33 34  1  0
 34 35  2  0
 34 36  1  0
 36 37  1  0
 37 38  1  0
M  END
>  <Gold.Gold.Protein.RotatedWaterAtoms>  (505) 


>  <Gold.Id.Protein>  (505) 


>  <Gold.PLP.Chemscore.CHOScore>  (505) 
0.0000

>  <Gold.PLP.Chemscore.Hbond>  (505) 
1.9760

>  <Gold.PLP.Chemscore.Internal.Correction>  (505) 
2.9613

>  <Gold.PLP.Chemscore.Metal>  (505) 
0.0000

>  <Gold.PLP.Fitness>  (505) 
63.8411

>  <Gold.PLP.PLP>  (505) 
-58.7534

>  <Gold.PLP.ligand.clash>  (505) 
0.0000

>  <Gold.PLP.ligand.torsion>  (505) 
1.9008

>  <Gold.PLP.part.buried>  (505) 
-2.8818

>  <Gold.PLP.part.hbond>  (505) 
-4.0000

>  <Gold.PLP.part.metal>  (505) 
0.0000

>  <Gold.PLP.part.nonpolar>  (505) 
-52.0964

>  <Gold.PLP.part.repulsive>  (505) 
0.1903

>  <Gold.Protein.RotatedAtoms>  (505) 


>  <Gold.Protein.RotatedTorsions>  (505) 


>  <Gold.Protein.RotatedWaterAtoms>  (505) 


>  <Gold.Version>  (505) 
5.3.0

>  <PLP.Chemscore.CHOScore>  (505) 


>  <PLP.Chemscore.Hbond>  (505) 


>  <PLP.Chemscore.Internal.Correction>  (505) 


>  <PLP.Chemscore.Metal>  (505) 


>  <PLP.Fitness>  (505) 


>  <PLP.PLP>  (505) 


>  <PLP.ligand.clash>  (505) 


>  <PLP.ligand.torsion>  (505) 


>  <PLP.part.buried>  (505) 


>  <PLP.part.hbond>  (505) 


>  <PLP.part.metal>  (505) 


>  <PLP.part.nonpolar>  (505) 


>  <PLP.part.repulsive>  (505) 


>  <Version>  (505) 


$$$$
3505|Compound_2138|Compounds_3D_F|sdf|628|dock2|1
     RDKit          3D

 38 42  0  0  0  0  0  0  0  0999 V2000
   -8.4529  -19.3795    7.3984 O   0  0  0  0  0  0  0  0  0  0  0  0
   -8.7105  -19.2502    8.7222 C   0  0  0  0  0  0  0  0  0  0  0  0
   -9.3046  -20.2984    9.4412 C   0  0  0  0  0  0  0  0  0  0  0  0
   -9.7360  -21.5454    9.1262 N   0  0  0  0  0  0  0  0  0  0  0  0
  -10.2181  -22.1186   10.1902 C   0  0  0  0  0  0  0  0  0  0  0  0
  -10.1257  -21.2742   11.2572 N   0  0  0  0  0  0  0  0  0  0  0  0
   -9.5494  -20.1105   10.8132 C   0  0  0  0  0  0  0  0  0  0  0  0
   -9.2128  -18.9569   11.3779 N   0  0  0  0  0  0  0  0  0  0  0  0
   -8.6557  -17.9951   10.6616 C   0  0  0  0  0  0  0  0  0  0  0  0
   -8.4028  -18.1326    9.3659 N   0  0  0  0  0  0  0  0  0  0  0  0
   -8.3177  -16.8017   11.2874 N   0  0  0  0  0  0  0  0  0  0  0  0
   -7.2265  -16.1182   10.8909 C   0  0  0  0  0  0  0  0  0  0  0  0
   -6.5375  -16.5454    9.9853 O   0  0  0  0  0  0  0  0  0  0  0  0
   -6.8676  -14.8478   11.5569 C   0  0  0  0  0  0  0  0  0  0  0  0
   -7.7664  -13.7804   11.5615 C   0  0  0  0  0  0  0  0  0  0  0  0
   -7.4258  -12.5978   12.1851 C   0  0  0  0  0  0  0  0  0  0  0  0
   -6.1949  -12.4689   12.8044 C   0  0  0  0  0  0  0  0  0  0  0  0
   -5.2989  -13.5240   12.8025 C   0  0  0  0  0  0  0  0  0  0  0  0
   -5.6297  -14.7130   12.1886 C   0  0  0  0  0  0  0  0  0  0  0  0
   -4.6530  -15.8604   12.1877 C   0  0  0  0  0  0  0  0  0  0  0  0
   -9.1075  -13.9187   10.8873 C   0  0  0  0  0  0  0  0  0  0  0  0
  -10.5615  -21.5573   12.6272 C   0  0  0  0  0  0  0  0  0  0  0  0
   -9.7041  -22.5574   13.2177 O   0  0  0  0  0  0  0  0  0  0  0  0
  -10.5125  -23.6288   13.6725 C   0  0  0  0  0  0  0  0  0  0  0  0
   -9.8890  -25.0084   13.6995 C   0  0  0  0  0  0  0  0  0  0  0  0
  -10.8499  -25.8891   14.3299 O   0  0  0  0  0  0  0  0  0  0  0  0
  -12.3960  -25.8991   13.8334 P   0  0  0  0  0  0  0  0  0  0  0  0
  -13.2789  -26.3314   14.9395 O   0  0  0  0  0  0  0  0  0  0  0  0
  -12.5635  -26.8916   12.5767 O   0  0  0  0  0  0  0  0  0  0  0  0
  -12.7612  -24.3719   13.3929 O   0  0  0  0  0  0  0  0  0  0  0  0
  -11.7284  -23.6452   12.7065 C   0  0  0  0  0  0  0  0  0  0  0  0
  -12.0042  -22.1291   12.6135 C   0  0  0  0  0  0  0  0  0  0  0  0
  -12.6964  -21.8002   11.3799 O   0  0  0  0  0  0  0  0  0  0  0  0
  -13.8654  -22.4195   11.1531 C   0  0  0  0  0  0  0  0  0  0  0  0
  -14.4168  -23.0149   12.0481 O   0  0  0  0  0  0  0  0  0  0  0  0
  -14.4911  -22.3705    9.7832 C   0  0  0  0  0  0  0  0  0  0  0  0
  -14.3500  -20.9598    9.2074 C   0  0  0  0  0  0  0  0  0  0  0  0
  -15.0694  -19.9634   10.1180 C   0  0  0  0  0  0  0  0  0  0  0  0
  1  2  1  0
  2  3  2  0
  2 10  1  0
  3  4  1  0
  3  7  1  0
  4  5  2  0
  5  6  1  0
  6  7  1  0
  6 22  1  0
  7  8  2  0
  8  9  1  0
  9 10  2  0
  9 11  1  0
 11 12  1  0
 12 13  2  0
 12 14  1  0
 14 15  2  0
 14 19  1  0
 15 16  1  0
 15 21  1  0
 16 17  2  0
 17 18  1  0
 18 19  2  0
 19 20  1  0
 22 23  1  0
 22 32  1  0
 23 24  1  0
 24 25  1  0
 24 31  1  0
 25 26  1  0
 26 27  1  0
 27 28  2  0
 27 29  1  0
 27 30  1  0
 30 31  1  0
 31 32  1  0
 32 33  1  0
 33 34  1  0
 34 35  2  0
 34 36  1  0
 36 37  1  0
 37 38  1  0
M  END
>  <Gold.Gold.Protein.RotatedWaterAtoms>  (506) 


>  <Gold.Id.Protein>  (506) 


>  <Gold.PLP.Chemscore.CHOScore>  (506) 
0.0000

>  <Gold.PLP.Chemscore.Hbond>  (506) 
2.2517

>  <Gold.PLP.Chemscore.Internal.Correction>  (506) 
2.8216

>  <Gold.PLP.Chemscore.Metal>  (506) 
0.0000

>  <Gold.PLP.Fitness>  (506) 
62.7429

>  <Gold.PLP.PLP>  (506) 
-57.1033

>  <Gold.PLP.ligand.clash>  (506) 
0.0000

>  <Gold.PLP.ligand.torsion>  (506) 
1.9685

>  <Gold.PLP.part.buried>  (506) 
-2.7615

>  <Gold.PLP.part.hbond>  (506) 
-4.7444

>  <Gold.PLP.part.metal>  (506) 
0.0000

>  <Gold.PLP.part.nonpolar>  (506) 
-49.1752

>  <Gold.PLP.part.repulsive>  (506) 
0.1238

>  <Gold.Protein.RotatedAtoms>  (506) 


>  <Gold.Protein.RotatedTorsions>  (506) 


>  <Gold.Protein.RotatedWaterAtoms>  (506) 


>  <Gold.Version>  (506) 
5.3.0

>  <PLP.Chemscore.CHOScore>  (506) 


>  <PLP.Chemscore.Hbond>  (506) 


>  <PLP.Chemscore.Internal.Correction>  (506) 


>  <PLP.Chemscore.Metal>  (506) 


>  <PLP.Fitness>  (506) 


>  <PLP.PLP>  (506) 


>  <PLP.ligand.clash>  (506) 


>  <PLP.ligand.torsion>  (506) 


>  <PLP.part.buried>  (506) 


>  <PLP.part.hbond>  (506) 


>  <PLP.part.metal>  (506) 


>  <PLP.part.nonpolar>  (506) 


>  <PLP.part.repulsive>  (506) 


>  <Version>  (506) 


$$$$
3506|Compound_2138|Compounds_3D_F|sdf|628|dock3|1
     RDKit          3D

 38 42  0  0  0  0  0  0  0  0999 V2000
  -12.6163  -18.0481    9.5935 O   0  0  0  0  0  0  0  0  0  0  0  0
  -11.4610  -18.4508   10.1754 C   0  0  0  0  0  0  0  0  0  0  0  0
  -11.1317  -19.8129   10.2448 C   0  0  0  0  0  0  0  0  0  0  0  0
  -11.7304  -20.9599    9.8370 N   0  0  0  0  0  0  0  0  0  0  0  0
  -10.9824  -21.9759   10.1553 C   0  0  0  0  0  0  0  0  0  0  0  0
   -9.8541  -21.5441   10.7882 N   0  0  0  0  0  0  0  0  0  0  0  0
   -9.9199  -20.1751   10.8595 C   0  0  0  0  0  0  0  0  0  0  0  0
   -9.1341  -19.2237   11.3498 N   0  0  0  0  0  0  0  0  0  0  0  0
   -9.4846  -17.9517   11.2636 C   0  0  0  0  0  0  0  0  0  0  0  0
  -10.6164  -17.5662   10.6874 N   0  0  0  0  0  0  0  0  0  0  0  0
   -8.6366  -16.9845   11.7887 N   0  0  0  0  0  0  0  0  0  0  0  0
   -8.4079  -15.8460   11.1055 C   0  0  0  0  0  0  0  0  0  0  0  0
   -8.9439  -15.6645   10.0298 O   0  0  0  0  0  0  0  0  0  0  0  0
   -7.5058  -14.8166   11.6651 C   0  0  0  0  0  0  0  0  0  0  0  0
   -7.9735  -13.5211   11.8882 C   0  0  0  0  0  0  0  0  0  0  0  0
   -7.1270  -12.5653   12.4110 C   0  0  0  0  0  0  0  0  0  0  0  0
   -5.8160  -12.8895   12.7131 C   0  0  0  0  0  0  0  0  0  0  0  0
   -5.3461  -14.1729   12.4933 C   0  0  0  0  0  0  0  0  0  0  0  0
   -6.1837  -15.1386   11.9774 C   0  0  0  0  0  0  0  0  0  0  0  0
   -5.6703  -16.5351   11.7390 C   0  0  0  0  0  0  0  0  0  0  0  0
   -9.4012  -13.1658   11.5596 C   0  0  0  0  0  0  0  0  0  0  0  0
   -8.7695  -22.3870   11.2983 C   0  0  0  0  0  0  0  0  0  0  0  0
   -8.2464  -23.2102   10.2342 O   0  0  0  0  0  0  0  0  0  0  0  0
   -8.3129  -24.5658   10.6421 C   0  0  0  0  0  0  0  0  0  0  0  0
   -8.4725  -25.6117    9.5590 C   0  0  0  0  0  0  0  0  0  0  0  0
   -8.3680  -26.9027   10.2059 O   0  0  0  0  0  0  0  0  0  0  0  0
   -9.2454  -27.2232   11.5343 P   0  0  0  0  0  0  0  0  0  0  0  0
   -8.5637  -28.2492   12.3545 O   0  0  0  0  0  0  0  0  0  0  0  0
  -10.7108  -27.7407   11.1138 O   0  0  0  0  0  0  0  0  0  0  0  0
   -9.3633  -25.8284   12.3712 O   0  0  0  0  0  0  0  0  0  0  0  0
   -9.5398  -24.6337   11.5918 C   0  0  0  0  0  0  0  0  0  0  0  0
   -9.3137  -23.3370   12.3983 C   0  0  0  0  0  0  0  0  0  0  0  0
  -10.5614  -22.8466   12.9568 O   0  0  0  0  0  0  0  0  0  0  0  0
  -10.5598  -22.5195   14.2586 C   0  0  0  0  0  0  0  0  0  0  0  0
   -9.8128  -23.0842   15.0220 O   0  0  0  0  0  0  0  0  0  0  0  0
  -11.4878  -21.4470   14.7676 C   0  0  0  0  0  0  0  0  0  0  0  0
  -12.9368  -21.8483   14.4831 C   0  0  0  0  0  0  0  0  0  0  0  0
  -13.8827  -20.8942   15.2142 C   0  0  0  0  0  0  0  0  0  0  0  0
  1  2  1  0
  2  3  2  0
  2 10  1  0
  3  4  1  0
  3  7  1  0
  4  5  2  0
  5  6  1  0
  6  7  1  0
  6 22  1  0
  7  8  2  0
  8  9  1  0
  9 10  2  0
  9 11  1  0
 11 12  1  0
 12 13  2  0
 12 14  1  0
 14 15  2  0
 14 19  1  0
 15 16  1  0
 15 21  1  0
 16 17  2  0
 17 18  1  0
 18 19  2  0
 19 20  1  0
 22 23  1  0
 22 32  1  0
 23 24  1  0
 24 25  1  0
 24 31  1  0
 25 26  1  0
 26 27  1  0
 27 28  2  0
 27 29  1  0
 27 30  1  0
 30 31  1  0
 31 32  1  0
 32 33  1  0
 33 34  1  0
 34 35  2  0
 34 36  1  0
 36 37  1  0
 37 38  1  0
M  END
>  <Gold.Gold.Protein.RotatedWaterAtoms>  (507) 


>  <Gold.Id.Protein>  (507) 


>  <Gold.PLP.Chemscore.CHOScore>  (507) 
0.0000

>  <Gold.PLP.Chemscore.Hbond>  (507) 
1.8775

>  <Gold.PLP.Chemscore.Internal.Correction>  (507) 
2.8216

>  <Gold.PLP.Chemscore.Metal>  (507) 
0.0000

>  <Gold.PLP.Fitness>  (507) 
65.0753

>  <Gold.PLP.PLP>  (507) 
-61.7294

>  <Gold.PLP.ligand.clash>  (507) 
0.0000

>  <Gold.PLP.ligand.torsion>  (507) 
2.5541

>  <Gold.PLP.part.buried>  (507) 
-10.3148

>  <Gold.PLP.part.hbond>  (507) 
-3.5460

>  <Gold.PLP.part.metal>  (507) 
0.0000

>  <Gold.PLP.part.nonpolar>  (507) 
-49.8739

>  <Gold.PLP.part.repulsive>  (507) 
0.1733

>  <Gold.Protein.RotatedAtoms>  (507) 


>  <Gold.Protein.RotatedTorsions>  (507) 


>  <Gold.Protein.RotatedWaterAtoms>  (507) 


>  <Gold.Version>  (507) 
5.3.0

>  <PLP.Chemscore.CHOScore>  (507) 


>  <PLP.Chemscore.Hbond>  (507) 


>  <PLP.Chemscore.Internal.Correction>  (507) 


>  <PLP.Chemscore.Metal>  (507) 


>  <PLP.Fitness>  (507) 


>  <PLP.PLP>  (507) 


>  <PLP.ligand.clash>  (507) 


>  <PLP.ligand.torsion>  (507) 


>  <PLP.part.buried>  (507) 


>  <PLP.part.hbond>  (507) 


>  <PLP.part.metal>  (507) 


>  <PLP.part.nonpolar>  (507) 


>  <PLP.part.repulsive>  (507) 


>  <Version>  (507) 


$$$$
3507|Compound_2138|Compounds_3D_F|sdf|628|dock4|1
     RDKit          3D

 38 42  0  0  0  0  0  0  0  0999 V2000
  -13.0753  -18.1224   10.3423 O   0  0  0  0  0  0  0  0  0  0  0  0
  -11.8553  -18.5381   10.7599 C   0  0  0  0  0  0  0  0  0  0  0  0
  -11.5199  -19.9004   10.7455 C   0  0  0  0  0  0  0  0  0  0  0  0
  -12.1659  -21.0369   10.3829 N   0  0  0  0  0  0  0  0  0  0  0  0
  -11.3835  -22.0591   10.5725 C   0  0  0  0  0  0  0  0  0  0  0  0
  -10.1837  -21.6422   11.0693 N   0  0  0  0  0  0  0  0  0  0  0  0
  -10.2397  -20.2762   11.1897 C   0  0  0  0  0  0  0  0  0  0  0  0
   -9.3977  -19.3370   11.6044 N   0  0  0  0  0  0  0  0  0  0  0  0
   -9.7563  -18.0643   11.6020 C   0  0  0  0  0  0  0  0  0  0  0  0
  -10.9522  -17.6660   11.1865 N   0  0  0  0  0  0  0  0  0  0  0  0
   -8.8481  -17.1101   12.0437 N   0  0  0  0  0  0  0  0  0  0  0  0
   -8.5614  -16.0441   11.2713 C   0  0  0  0  0  0  0  0  0  0  0  0
   -9.0976  -15.9167   10.1879 O   0  0  0  0  0  0  0  0  0  0  0  0
   -7.5954  -15.0285   11.7421 C   0  0  0  0  0  0  0  0  0  0  0  0
   -7.9862  -13.6950   11.8691 C   0  0  0  0  0  0  0  0  0  0  0  0
   -7.0803  -12.7523   12.3095 C   0  0  0  0  0  0  0  0  0  0  0  0
   -5.7858  -13.1271   12.6240 C   0  0  0  0  0  0  0  0  0  0  0  0
   -5.3921  -14.4483   12.4993 C   0  0  0  0  0  0  0  0  0  0  0  0
   -6.2895  -15.4009   12.0666 C   0  0  0  0  0  0  0  0  0  0  0  0
   -5.8589  -16.8386   11.9316 C   0  0  0  0  0  0  0  0  0  0  0  0
   -9.3958  -13.2846   11.5268 C   0  0  0  0  0  0  0  0  0  0  0  0
   -9.0430  -22.4960   11.4114 C   0  0  0  0  0  0  0  0  0  0  0  0
   -8.6875  -23.3166   10.2783 O   0  0  0  0  0  0  0  0  0  0  0  0
   -8.7045  -24.6740   10.6850 C   0  0  0  0  0  0  0  0  0  0  0  0
   -9.0289  -25.7123    9.6317 C   0  0  0  0  0  0  0  0  0  0  0  0
   -8.8414  -27.0079   10.2502 O   0  0  0  0  0  0  0  0  0  0  0  0
   -9.5180  -27.3300   11.6909 P   0  0  0  0  0  0  0  0  0  0  0  0
   -8.7320  -28.3657   12.3978 O   0  0  0  0  0  0  0  0  0  0  0  0
  -11.0332  -27.8344   11.4865 O   0  0  0  0  0  0  0  0  0  0  0  0
   -9.5012  -25.9394   12.5428 O   0  0  0  0  0  0  0  0  0  0  0  0
   -9.7801  -24.7388   11.8034 C   0  0  0  0  0  0  0  0  0  0  0  0
   -9.4283  -23.4485   12.5745 C   0  0  0  0  0  0  0  0  0  0  0  0
  -10.5771  -22.9525   13.3116 O   0  0  0  0  0  0  0  0  0  0  0  0
  -10.6022  -23.1888   14.6327 C   0  0  0  0  0  0  0  0  0  0  0  0
   -9.6864  -23.7757   15.1585 O   0  0  0  0  0  0  0  0  0  0  0  0
  -11.7712  -22.7206   15.4602 C   0  0  0  0  0  0  0  0  0  0  0  0
  -11.9258  -21.2053   15.3143 C   0  0  0  0  0  0  0  0  0  0  0  0
  -12.5420  -20.8848   13.9515 C   0  0  0  0  0  0  0  0  0  0  0  0
  1  2  1  0
  2  3  2  0
  2 10  1  0
  3  4  1  0
  3  7  1  0
  4  5  2  0
  5  6  1  0
  6  7  1  0
  6 22  1  0
  7  8  2  0
  8  9  1  0
  9 10  2  0
  9 11  1  0
 11 12  1  0
 12 13  2  0
 12 14  1  0
 14 15  2  0
 14 19  1  0
 15 16  1  0
 15 21  1  0
 16 17  2  0
 17 18  1  0
 18 19  2  0
 19 20  1  0
 22 23  1  0
 22 32  1  0
 23 24  1  0
 24 25  1  0
 24 31  1  0
 25 26  1  0
 26 27  1  0
 27 28  2  0
 27 29  1  0
 27 30  1  0
 30 31  1  0
 31 32  1  0
 32 33  1  0
 33 34  1  0
 34 35  2  0
 34 36  1  0
 36 37  1  0
 37 38  1  0
M  END
>  <Gold.Gold.Protein.RotatedWaterAtoms>  (508) 


>  <Gold.Id.Protein>  (508) 


>  <Gold.PLP.Chemscore.CHOScore>  (508) 
0.0000

>  <Gold.PLP.Chemscore.Hbond>  (508) 
2.0000

>  <Gold.PLP.Chemscore.Internal.Correction>  (508) 
2.8216

>  <Gold.PLP.Chemscore.Metal>  (508) 
0.0000

>  <Gold.PLP.Fitness>  (508) 
63.6220

>  <Gold.PLP.PLP>  (508) 
-59.1868

>  <Gold.PLP.ligand.clash>  (508) 
0.0000

>  <Gold.PLP.ligand.torsion>  (508) 
2.1932

>  <Gold.PLP.part.buried>  (508) 
-7.1399

>  <Gold.PLP.part.hbond>  (508) 
-3.5546

>  <Gold.PLP.part.metal>  (508) 
0.0000

>  <Gold.PLP.part.nonpolar>  (508) 
-49.0095

>  <Gold.PLP.part.repulsive>  (508) 
0.1902

>  <Gold.Protein.RotatedAtoms>  (508) 


>  <Gold.Protein.RotatedTorsions>  (508) 


>  <Gold.Protein.RotatedWaterAtoms>  (508) 


>  <Gold.Version>  (508) 
5.3.0

>  <PLP.Chemscore.CHOScore>  (508) 


>  <PLP.Chemscore.Hbond>  (508) 


>  <PLP.Chemscore.Internal.Correction>  (508) 


>  <PLP.Chemscore.Metal>  (508) 


>  <PLP.Fitness>  (508) 


>  <PLP.PLP>  (508) 


>  <PLP.ligand.clash>  (508) 


>  <PLP.ligand.torsion>  (508) 


>  <PLP.part.buried>  (508) 


>  <PLP.part.hbond>  (508) 


>  <PLP.part.metal>  (508) 


>  <PLP.part.nonpolar>  (508) 


>  <PLP.part.repulsive>  (508) 


>  <Version>  (508) 


$$$$
3508|Compound_2138|Compounds_3D_F|sdf|628|dock5|1
     RDKit          3D

 38 42  0  0  0  0  0  0  0  0999 V2000
   -9.1028  -20.1528    7.7066 O   0  0  0  0  0  0  0  0  0  0  0  0
   -9.0981  -19.7054    8.9854 C   0  0  0  0  0  0  0  0  0  0  0  0
   -9.7132  -20.4471   10.0052 C   0  0  0  0  0  0  0  0  0  0  0  0
  -10.3849  -21.6248   10.0544 N   0  0  0  0  0  0  0  0  0  0  0  0
  -10.7551  -21.8614   11.2791 C   0  0  0  0  0  0  0  0  0  0  0  0
  -10.3431  -20.8489   12.0947 N   0  0  0  0  0  0  0  0  0  0  0  0
   -9.6783  -19.9361   11.3148 C   0  0  0  0  0  0  0  0  0  0  0  0
   -9.0692  -18.7781   11.5408 N   0  0  0  0  0  0  0  0  0  0  0  0
   -8.5032  -18.1115   10.5490 C   0  0  0  0  0  0  0  0  0  0  0  0
   -8.5087  -18.5601    9.2999 N   0  0  0  0  0  0  0  0  0  0  0  0
   -7.8756  -16.9029   10.8243 N   0  0  0  0  0  0  0  0  0  0  0  0
   -8.4458  -16.0254   11.6728 C   0  0  0  0  0  0  0  0  0  0  0  0
   -9.5093  -16.2909   12.1980 O   0  0  0  0  0  0  0  0  0  0  0  0
   -7.7772  -14.7395   11.9660 C   0  0  0  0  0  0  0  0  0  0  0  0
   -8.4358  -13.5345   11.7187 C   0  0  0  0  0  0  0  0  0  0  0  0
   -7.8067  -12.3382   11.9949 C   0  0  0  0  0  0  0  0  0  0  0  0
   -6.5245  -12.3319   12.5154 C   0  0  0  0  0  0  0  0  0  0  0  0
   -5.8658  -13.5241   12.7622 C   0  0  0  0  0  0  0  0  0  0  0  0
   -6.4858  -14.7262   12.4966 C   0  0  0  0  0  0  0  0  0  0  0  0
   -5.7670  -16.0229   12.7661 C   0  0  0  0  0  0  0  0  0  0  0  0
   -9.8325  -13.5391   11.1515 C   0  0  0  0  0  0  0  0  0  0  0  0
  -10.5684  -20.7530   13.5394 C   0  0  0  0  0  0  0  0  0  0  0  0
   -9.7792  -21.7478   14.2258 O   0  0  0  0  0  0  0  0  0  0  0  0
  -10.6453  -22.5319   15.0279 C   0  0  0  0  0  0  0  0  0  0  0  0
  -10.2392  -23.9660   15.2944 C   0  0  0  0  0  0  0  0  0  0  0  0
  -11.1945  -24.5019   16.2412 O   0  0  0  0  0  0  0  0  0  0  0  0
  -12.7878  -24.3300   15.9788 P   0  0  0  0  0  0  0  0  0  0  0  0
  -13.5168  -24.3500   17.2665 O   0  0  0  0  0  0  0  0  0  0  0  0
  -13.3196  -25.5154   15.0279 O   0  0  0  0  0  0  0  0  0  0  0  0
  -12.9933  -22.8885   15.2442 O   0  0  0  0  0  0  0  0  0  0  0  0
  -12.0008  -22.5254   14.2701 C   0  0  0  0  0  0  0  0  0  0  0  0
  -12.0598  -21.0383   13.8600 C   0  0  0  0  0  0  0  0  0  0  0  0
  -12.9013  -20.8532   12.6909 O   0  0  0  0  0  0  0  0  0  0  0  0
  -13.0026  -19.6066   12.2038 C   0  0  0  0  0  0  0  0  0  0  0  0
  -12.2076  -18.7610   12.5392 O   0  0  0  0  0  0  0  0  0  0  0  0
  -14.1063  -19.2621   11.2375 C   0  0  0  0  0  0  0  0  0  0  0  0
  -13.5009  -18.6919    9.9530 C   0  0  0  0  0  0  0  0  0  0  0  0
  -13.4436  -19.7871    8.8868 C   0  0  0  0  0  0  0  0  0  0  0  0
  1  2  1  0
  2  3  2  0
  2 10  1  0
  3  4  1  0
  3  7  1  0
  4  5  2  0
  5  6  1  0
  6  7  1  0
  6 22  1  0
  7  8  2  0
  8  9  1  0
  9 10  2  0
  9 11  1  0
 11 12  1  0
 12 13  2  0
 12 14  1  0
 14 15  2  0
 14 19  1  0
 15 16  1  0
 15 21  1  0
 16 17  2  0
 17 18  1  0
 18 19  2  0
 19 20  1  0
 22 23  1  0
 22 32  1  0
 23 24  1  0
 24 25  1  0
 24 31  1  0
 25 26  1  0
 26 27  1  0
 27 28  2  0
 27 29  1  0
 27 30  1  0
 30 31  1  0
 31 32  1  0
 32 33  1  0
 33 34  1  0
 34 35  2  0
 34 36  1  0
 36 37  1  0
 37 38  1  0
M  END
>  <Gold.Gold.Protein.RotatedWaterAtoms>  (509) 


>  <Gold.Id.Protein>  (509) 


>  <Gold.PLP.Chemscore.CHOScore>  (509) 
0.0000

>  <Gold.PLP.Chemscore.Hbond>  (509) 
2.2581

>  <Gold.PLP.Chemscore.Internal.Correction>  (509) 
2.8216

>  <Gold.PLP.Chemscore.Metal>  (509) 
0.0000

>  <Gold.PLP.Fitness>  (509) 
64.6330

>  <Gold.PLP.PLP>  (509) 
-59.3256

>  <Gold.PLP.ligand.clash>  (509) 
0.0517

>  <Gold.PLP.ligand.torsion>  (509) 
2.1185

>  <Gold.PLP.part.buried>  (509) 
4.4324

>  <Gold.PLP.part.hbond>  (509) 
-4.3327

>  <Gold.PLP.part.metal>  (509) 
0.0000

>  <Gold.PLP.part.nonpolar>  (509) 
-59.9295

>  <Gold.PLP.part.repulsive>  (509) 
0.3120

>  <Gold.Protein.RotatedAtoms>  (509) 


>  <Gold.Protein.RotatedTorsions>  (509) 


>  <Gold.Protein.RotatedWaterAtoms>  (509) 


>  <Gold.Version>  (509) 
5.3.0

>  <PLP.Chemscore.CHOScore>  (509) 


>  <PLP.Chemscore.Hbond>  (509) 


>  <PLP.Chemscore.Internal.Correction>  (509) 


>  <PLP.Chemscore.Metal>  (509) 


>  <PLP.Fitness>  (509) 


>  <PLP.PLP>  (509) 


>  <PLP.ligand.clash>  (509) 


>  <PLP.ligand.torsion>  (509) 


>  <PLP.part.buried>  (509) 


>  <PLP.part.hbond>  (509) 


>  <PLP.part.metal>  (509) 


>  <PLP.part.nonpolar>  (509) 


>  <PLP.part.repulsive>  (509) 


>  <Version>  (509) 


$$$$
3509|Compound_2138|Compounds_3D_F|sdf|628|dock6|1
     RDKit          3D

 38 42  0  0  0  0  0  0  0  0999 V2000
   -9.0195  -19.2049    7.9122 O   0  0  0  0  0  0  0  0  0  0  0  0
   -9.1789  -18.9766    9.2382 C   0  0  0  0  0  0  0  0  0  0  0  0
   -9.7691  -19.9443   10.0650 C   0  0  0  0  0  0  0  0  0  0  0  0
  -10.2778  -21.1861    9.8653 N   0  0  0  0  0  0  0  0  0  0  0  0
  -10.7108  -21.6636   10.9956 C   0  0  0  0  0  0  0  0  0  0  0  0
  -10.5065  -20.7570   11.9938 N   0  0  0  0  0  0  0  0  0  0  0  0
   -9.9097  -19.6552   11.4340 C   0  0  0  0  0  0  0  0  0  0  0  0
   -9.4825  -18.4855   11.8948 N   0  0  0  0  0  0  0  0  0  0  0  0
   -8.9330  -17.6018   11.0790 C   0  0  0  0  0  0  0  0  0  0  0  0
   -8.7767  -17.8362    9.7820 N   0  0  0  0  0  0  0  0  0  0  0  0
   -8.4984  -16.3884   11.5979 N   0  0  0  0  0  0  0  0  0  0  0  0
   -7.3972  -15.7964   11.0958 C   0  0  0  0  0  0  0  0  0  0  0  0
   -6.7839  -16.3235   10.1884 O   0  0  0  0  0  0  0  0  0  0  0  0
   -6.9356  -14.5047   11.6480 C   0  0  0  0  0  0  0  0  0  0  0  0
   -5.6524  -14.3901   12.1842 C   0  0  0  0  0  0  0  0  0  0  0  0
   -5.2274  -13.1821   12.6973 C   0  0  0  0  0  0  0  0  0  0  0  0
   -6.0715  -12.0855   12.6817 C   0  0  0  0  0  0  0  0  0  0  0  0
   -7.3457  -12.1933   12.1518 C   0  0  0  0  0  0  0  0  0  0  0  0
   -7.7801  -13.3930   11.6301 C   0  0  0  0  0  0  0  0  0  0  0  0
   -9.1675  -13.5083   11.0536 C   0  0  0  0  0  0  0  0  0  0  0  0
   -4.7315  -15.5834   12.2024 C   0  0  0  0  0  0  0  0  0  0  0  0
  -10.8590  -20.9277   13.4057 C   0  0  0  0  0  0  0  0  0  0  0  0
   -9.9916  -21.9092   14.0124 O   0  0  0  0  0  0  0  0  0  0  0  0
  -10.7965  -22.9197   14.5949 C   0  0  0  0  0  0  0  0  0  0  0  0
  -10.2093  -24.3125   14.6836 C   0  0  0  0  0  0  0  0  0  0  0  0
  -11.1499  -25.1155   15.4364 O   0  0  0  0  0  0  0  0  0  0  0  0
  -12.7249  -25.1129   15.0409 P   0  0  0  0  0  0  0  0  0  0  0  0
  -13.5447  -25.4373   16.2294 O   0  0  0  0  0  0  0  0  0  0  0  0
  -13.0005  -26.1870   13.8736 O   0  0  0  0  0  0  0  0  0  0  0  0
  -13.0776  -23.6105   14.5136 O   0  0  0  0  0  0  0  0  0  0  0  0
  -12.0731  -22.9672   13.7117 C   0  0  0  0  0  0  0  0  0  0  0  0
  -12.3141  -21.4538   13.5254 C   0  0  0  0  0  0  0  0  0  0  0  0
  -13.0766  -21.1926   12.3173 O   0  0  0  0  0  0  0  0  0  0  0  0
  -13.2565  -19.9070   11.9760 C   0  0  0  0  0  0  0  0  0  0  0  0
  -12.7152  -19.0326   12.6101 O   0  0  0  0  0  0  0  0  0  0  0  0
  -14.1318  -19.5542   10.8013 C   0  0  0  0  0  0  0  0  0  0  0  0
  -13.6009  -20.2449    9.5432 C   0  0  0  0  0  0  0  0  0  0  0  0
  -14.7686  -20.5761    8.6125 C   0  0  0  0  0  0  0  0  0  0  0  0
  1  2  1  0
  2  3  2  0
  2 10  1  0
  3  4  1  0
  3  7  1  0
  4  5  2  0
  5  6  1  0
  6  7  1  0
  6 22  1  0
  7  8  2  0
  8  9  1  0
  9 10  2  0
  9 11  1  0
 11 12  1  0
 12 13  2  0
 12 14  1  0
 14 15  2  0
 14 19  1  0
 15 16  1  0
 15 21  1  0
 16 17  2  0
 17 18  1  0
 18 19  2  0
 19 20  1  0
 22 23  1  0
 22 32  1  0
 23 24  1  0
 24 25  1  0
 24 31  1  0
 25 26  1  0
 26 27  1  0
 27 28  2  0
 27 29  1  0
 27 30  1  0
 30 31  1  0
 31 32  1  0
 32 33  1  0
 33 34  1  0
 34 35  2  0
 34 36  1  0
 36 37  1  0
 37 38  1  0
M  END
>  <Gold.Gold.Protein.RotatedWaterAtoms>  (510) 


>  <Gold.Id.Protein>  (510) 


>  <Gold.PLP.Chemscore.CHOScore>  (510) 
0.0000

>  <Gold.PLP.Chemscore.Hbond>  (510) 
0.7350

>  <Gold.PLP.Chemscore.Internal.Correction>  (510) 
2.8216

>  <Gold.PLP.Chemscore.Metal>  (510) 
0.0000

>  <Gold.PLP.Fitness>  (510) 
62.4726

>  <Gold.PLP.PLP>  (510) 
-61.0714

>  <Gold.PLP.ligand.clash>  (510) 
0.0000

>  <Gold.PLP.ligand.torsion>  (510) 
1.8126

>  <Gold.PLP.part.buried>  (510) 
0.4569

>  <Gold.PLP.part.hbond>  (510) 
-4.4786

>  <Gold.PLP.part.metal>  (510) 
0.0000

>  <Gold.PLP.part.nonpolar>  (510) 
-57.8816

>  <Gold.PLP.part.repulsive>  (510) 
0.2832

>  <Gold.Protein.RotatedAtoms>  (510) 


>  <Gold.Protein.RotatedTorsions>  (510) 


>  <Gold.Protein.RotatedWaterAtoms>  (510) 


>  <Gold.Version>  (510) 
5.3.0

>  <PLP.Chemscore.CHOScore>  (510) 


>  <PLP.Chemscore.Hbond>  (510) 


>  <PLP.Chemscore.Internal.Correction>  (510) 


>  <PLP.Chemscore.Metal>  (510) 


>  <PLP.Fitness>  (510) 


>  <PLP.PLP>  (510) 


>  <PLP.ligand.clash>  (510) 


>  <PLP.ligand.torsion>  (510) 


>  <PLP.part.buried>  (510) 


>  <PLP.part.hbond>  (510) 


>  <PLP.part.metal>  (510) 


>  <PLP.part.nonpolar>  (510) 


>  <PLP.part.repulsive>  (510) 


>  <Version>  (510) 


$$$$
3510|Compound_2138|Compounds_3D_F|sdf|628|dock7|1
     RDKit          3D

 38 42  0  0  0  0  0  0  0  0999 V2000
   -8.4821  -19.3876    7.6017 O   0  0  0  0  0  0  0  0  0  0  0  0
   -8.7196  -19.2240    8.9255 C   0  0  0  0  0  0  0  0  0  0  0  0
   -9.3245  -20.2440    9.6753 C   0  0  0  0  0  0  0  0  0  0  0  0
   -9.7844  -21.4889    9.3938 N   0  0  0  0  0  0  0  0  0  0  0  0
  -10.2634  -22.0287   10.4765 C   0  0  0  0  0  0  0  0  0  0  0  0
  -10.1405  -21.1629   11.5231 N   0  0  0  0  0  0  0  0  0  0  0  0
   -9.5474  -20.0210   11.0458 C   0  0  0  0  0  0  0  0  0  0  0  0
   -9.1809  -18.8621   11.5801 N   0  0  0  0  0  0  0  0  0  0  0  0
   -8.6146  -17.9276   10.8354 C   0  0  0  0  0  0  0  0  0  0  0  0
   -8.3816  -18.0988    9.5401 N   0  0  0  0  0  0  0  0  0  0  0  0
   -8.2451  -16.7276   11.4300 N   0  0  0  0  0  0  0  0  0  0  0  0
   -7.1669  -16.0565   10.9803 C   0  0  0  0  0  0  0  0  0  0  0  0
   -6.5174  -16.5006   10.0538 O   0  0  0  0  0  0  0  0  0  0  0  0
   -6.7745  -14.7790   11.6130 C   0  0  0  0  0  0  0  0  0  0  0  0
   -5.5161  -14.6454   12.2010 C   0  0  0  0  0  0  0  0  0  0  0  0
   -5.1557  -13.4507   12.7893 C   0  0  0  0  0  0  0  0  0  0  0  0
   -6.0401  -12.3863   12.7977 C   0  0  0  0  0  0  0  0  0  0  0  0
   -7.2900  -12.5130   12.2167 C   0  0  0  0  0  0  0  0  0  0  0  0
   -7.6597  -13.6993   11.6199 C   0  0  0  0  0  0  0  0  0  0  0  0
   -9.0209  -13.8352   10.9878 C   0  0  0  0  0  0  0  0  0  0  0  0
   -4.5513  -15.8037   12.1931 C   0  0  0  0  0  0  0  0  0  0  0  0
  -10.5635  -21.4069   12.9046 C   0  0  0  0  0  0  0  0  0  0  0  0
   -9.7049  -22.3950   13.5130 O   0  0  0  0  0  0  0  0  0  0  0  0
  -10.5136  -23.4498   14.0046 C   0  0  0  0  0  0  0  0  0  0  0  0
   -9.8964  -24.8313   14.0625 C   0  0  0  0  0  0  0  0  0  0  0  0
  -10.8550  -25.6899   14.7260 O   0  0  0  0  0  0  0  0  0  0  0  0
  -12.4061  -25.7055   14.2455 P   0  0  0  0  0  0  0  0  0  0  0  0
  -13.2797  -26.1035   15.3718 O   0  0  0  0  0  0  0  0  0  0  0  0
  -12.5913  -26.7305   13.0178 O   0  0  0  0  0  0  0  0  0  0  0  0
  -12.7686  -24.1889   13.7679 O   0  0  0  0  0  0  0  0  0  0  0  0
  -11.7395  -23.4860   13.0518 C   0  0  0  0  0  0  0  0  0  0  0  0
  -12.0090  -21.9716   12.9208 C   0  0  0  0  0  0  0  0  0  0  0  0
  -12.7122  -21.6725   11.6858 O   0  0  0  0  0  0  0  0  0  0  0  0
  -14.0445  -21.8351   11.6882 C   0  0  0  0  0  0  0  0  0  0  0  0
  -14.5865  -22.3644   12.6294 O   0  0  0  0  0  0  0  0  0  0  0  0
  -14.8645  -21.3560   10.5183 C   0  0  0  0  0  0  0  0  0  0  0  0
  -14.7272  -19.8377   10.3861 C   0  0  0  0  0  0  0  0  0  0  0  0
  -13.7052  -19.5115    9.2958 C   0  0  0  0  0  0  0  0  0  0  0  0
  1  2  1  0
  2  3  2  0
  2 10  1  0
  3  4  1  0
  3  7  1  0
  4  5  2  0
  5  6  1  0
  6  7  1  0
  6 22  1  0
  7  8  2  0
  8  9  1  0
  9 10  2  0
  9 11  1  0
 11 12  1  0
 12 13  2  0
 12 14  1  0
 14 15  2  0
 14 19  1  0
 15 16  1  0
 15 21  1  0
 16 17  2  0
 17 18  1  0
 18 19  2  0
 19 20  1  0
 22 23  1  0
 22 32  1  0
 23 24  1  0
 24 25  1  0
 24 31  1  0
 25 26  1  0
 26 27  1  0
 27 28  2  0
 27 29  1  0
 27 30  1  0
 30 31  1  0
 31 32  1  0
 32 33  1  0
 33 34  1  0
 34 35  2  0
 34 36  1  0
 36 37  1  0
 37 38  1  0
M  END
>  <Gold.Gold.Protein.RotatedWaterAtoms>  (511) 


>  <Gold.Id.Protein>  (511) 


>  <Gold.PLP.Chemscore.CHOScore>  (511) 
0.0000

>  <Gold.PLP.Chemscore.Hbond>  (511) 
1.9120

>  <Gold.PLP.Chemscore.Internal.Correction>  (511) 
2.8216

>  <Gold.PLP.Chemscore.Metal>  (511) 
0.0000

>  <Gold.PLP.Fitness>  (511) 
64.6915

>  <Gold.PLP.PLP>  (511) 
-60.3088

>  <Gold.PLP.ligand.clash>  (511) 
0.0000

>  <Gold.PLP.ligand.torsion>  (511) 
2.0874

>  <Gold.PLP.part.buried>  (511) 
-3.6218

>  <Gold.PLP.part.hbond>  (511) 
-4.0000

>  <Gold.PLP.part.metal>  (511) 
0.0000

>  <Gold.PLP.part.nonpolar>  (511) 
-53.2410

>  <Gold.PLP.part.repulsive>  (511) 
0.2210

>  <Gold.Protein.RotatedAtoms>  (511) 


>  <Gold.Protein.RotatedTorsions>  (511) 


>  <Gold.Protein.RotatedWaterAtoms>  (511) 


>  <Gold.Version>  (511) 
5.3.0

>  <PLP.Chemscore.CHOScore>  (511) 


>  <PLP.Chemscore.Hbond>  (511) 


>  <PLP.Chemscore.Internal.Correction>  (511) 


>  <PLP.Chemscore.Metal>  (511) 


>  <PLP.Fitness>  (511) 


>  <PLP.PLP>  (511) 


>  <PLP.ligand.clash>  (511) 


>  <PLP.ligand.torsion>  (511) 


>  <PLP.part.buried>  (511) 


>  <PLP.part.hbond>  (511) 


>  <PLP.part.metal>  (511) 


>  <PLP.part.nonpolar>  (511) 


>  <PLP.part.repulsive>  (511) 


>  <Version>  (511) 


$$$$
3511|Compound_2138|Compounds_3D_F|sdf|628|dock8|1
     RDKit          3D

 38 42  0  0  0  0  0  0  0  0999 V2000
   -8.4875  -19.5522    6.9011 O   0  0  0  0  0  0  0  0  0  0  0  0
   -8.5096  -19.2674    8.2255 C   0  0  0  0  0  0  0  0  0  0  0  0
   -9.1702  -20.1140    9.1285 C   0  0  0  0  0  0  0  0  0  0  0  0
   -9.8691  -21.2710    9.0130 N   0  0  0  0  0  0  0  0  0  0  0  0
  -10.2795  -21.6483   10.1887 C   0  0  0  0  0  0  0  0  0  0  0  0
   -9.8687  -20.7558   11.1347 N   0  0  0  0  0  0  0  0  0  0  0  0
   -9.1616  -19.7706   10.4922 C   0  0  0  0  0  0  0  0  0  0  0  0
   -8.5336  -18.6656   10.8766 N   0  0  0  0  0  0  0  0  0  0  0  0
   -7.9246  -17.8958    9.9907 C   0  0  0  0  0  0  0  0  0  0  0  0
   -7.9042  -18.1855    8.6956 N   0  0  0  0  0  0  0  0  0  0  0  0
   -7.2785  -16.7473   10.4308 N   0  0  0  0  0  0  0  0  0  0  0  0
   -7.8259  -15.9985   11.4081 C   0  0  0  0  0  0  0  0  0  0  0  0
   -8.8850  -16.3279   11.9052 O   0  0  0  0  0  0  0  0  0  0  0  0
   -7.1375  -14.7767   11.8766 C   0  0  0  0  0  0  0  0  0  0  0  0
   -5.8418  -14.8547   12.3885 C   0  0  0  0  0  0  0  0  0  0  0  0
   -5.2047  -13.7109   12.8236 C   0  0  0  0  0  0  0  0  0  0  0  0
   -5.8488  -12.4880   12.7537 C   0  0  0  0  0  0  0  0  0  0  0  0
   -7.1344  -12.4045   12.2474 C   0  0  0  0  0  0  0  0  0  0  0  0
   -7.7795  -13.5390   11.8035 C   0  0  0  0  0  0  0  0  0  0  0  0
   -9.1789  -13.4459   11.2527 C   0  0  0  0  0  0  0  0  0  0  0  0
   -5.1384  -16.1857   12.4658 C   0  0  0  0  0  0  0  0  0  0  0  0
  -10.1332  -20.8343   12.5737 C   0  0  0  0  0  0  0  0  0  0  0  0
   -9.4007  -21.9380   13.1474 O   0  0  0  0  0  0  0  0  0  0  0  0
  -10.3176  -22.7825   13.8213 C   0  0  0  0  0  0  0  0  0  0  0  0
   -9.9709  -24.2536   13.9132 C   0  0  0  0  0  0  0  0  0  0  0  0
  -10.9725  -24.8669   14.7600 O   0  0  0  0  0  0  0  0  0  0  0  0
  -12.5501  -24.6011   14.4819 P   0  0  0  0  0  0  0  0  0  0  0  0
  -13.3173  -24.7550   15.7380 O   0  0  0  0  0  0  0  0  0  0  0  0
  -13.0953  -25.6353   13.3750 O   0  0  0  0  0  0  0  0  0  0  0  0
  -12.6822  -23.0715   13.9319 O   0  0  0  0  0  0  0  0  0  0  0  0
  -11.6489  -22.6274   13.0369 C   0  0  0  0  0  0  0  0  0  0  0  0
  -11.6427  -21.0993   12.8181 C   0  0  0  0  0  0  0  0  0  0  0  0
  -12.4420  -20.7354   11.6614 O   0  0  0  0  0  0  0  0  0  0  0  0
  -12.7121  -19.4314   11.4929 C   0  0  0  0  0  0  0  0  0  0  0  0
  -12.3769  -18.6318   12.3342 O   0  0  0  0  0  0  0  0  0  0  0  0
  -13.4314  -18.9646   10.2539 C   0  0  0  0  0  0  0  0  0  0  0  0
  -14.7801  -19.6794   10.1464 C   0  0  0  0  0  0  0  0  0  0  0  0
  -14.6448  -20.8855    9.2155 C   0  0  0  0  0  0  0  0  0  0  0  0
  1  2  1  0
  2  3  2  0
  2 10  1  0
  3  4  1  0
  3  7  1  0
  4  5  2  0
  5  6  1  0
  6  7  1  0
  6 22  1  0
  7  8  2  0
  8  9  1  0
  9 10  2  0
  9 11  1  0
 11 12  1  0
 12 13  2  0
 12 14  1  0
 14 15  2  0
 14 19  1  0
 15 16  1  0
 15 21  1  0
 16 17  2  0
 17 18  1  0
 18 19  2  0
 19 20  1  0
 22 23  1  0
 22 32  1  0
 23 24  1  0
 24 25  1  0
 24 31  1  0
 25 26  1  0
 26 27  1  0
 27 28  2  0
 27 29  1  0
 27 30  1  0
 30 31  1  0
 31 32  1  0
 32 33  1  0
 33 34  1  0
 34 35  2  0
 34 36  1  0
 36 37  1  0
 37 38  1  0
M  END
>  <Gold.Gold.Protein.RotatedWaterAtoms>  (512) 


>  <Gold.Id.Protein>  (512) 


>  <Gold.PLP.Chemscore.CHOScore>  (512) 
0.0000

>  <Gold.PLP.Chemscore.Hbond>  (512) 
1.6284

>  <Gold.PLP.Chemscore.Internal.Correction>  (512) 
2.8216

>  <Gold.PLP.Chemscore.Metal>  (512) 
0.0000

>  <Gold.PLP.Fitness>  (512) 
61.8197

>  <Gold.PLP.PLP>  (512) 
-58.0565

>  <Gold.PLP.ligand.clash>  (512) 
0.0000

>  <Gold.PLP.ligand.torsion>  (512) 
1.9718

>  <Gold.PLP.part.buried>  (512) 
2.8677

>  <Gold.PLP.part.hbond>  (512) 
-5.1939

>  <Gold.PLP.part.metal>  (512) 
0.0000

>  <Gold.PLP.part.nonpolar>  (512) 
-56.5915

>  <Gold.PLP.part.repulsive>  (512) 
0.1802

>  <Gold.Protein.RotatedAtoms>  (512) 


>  <Gold.Protein.RotatedTorsions>  (512) 


>  <Gold.Protein.RotatedWaterAtoms>  (512) 


>  <Gold.Version>  (512) 
5.3.0

>  <PLP.Chemscore.CHOScore>  (512) 


>  <PLP.Chemscore.Hbond>  (512) 


>  <PLP.Chemscore.Internal.Correction>  (512) 


>  <PLP.Chemscore.Metal>  (512) 


>  <PLP.Fitness>  (512) 


>  <PLP.PLP>  (512) 


>  <PLP.ligand.clash>  (512) 


>  <PLP.ligand.torsion>  (512) 


>  <PLP.part.buried>  (512) 


>  <PLP.part.hbond>  (512) 


>  <PLP.part.metal>  (512) 


>  <PLP.part.nonpolar>  (512) 


>  <PLP.part.repulsive>  (512) 


>  <Version>  (512) 


$$$$
3512|Compound_2138|Compounds_3D_F|sdf|628|dock9|1
     RDKit          3D

 38 42  0  0  0  0  0  0  0  0999 V2000
   -8.3834  -19.5868    6.9961 O   0  0  0  0  0  0  0  0  0  0  0  0
   -8.5887  -19.5515    8.3348 C   0  0  0  0  0  0  0  0  0  0  0  0
   -9.1375  -20.6558    9.0040 C   0  0  0  0  0  0  0  0  0  0  0  0
   -9.5632  -21.8861    8.6223 N   0  0  0  0  0  0  0  0  0  0  0  0
   -9.9930  -22.5379    9.6632 C   0  0  0  0  0  0  0  0  0  0  0  0
   -9.8696  -21.7658   10.7806 N   0  0  0  0  0  0  0  0  0  0  0  0
   -9.3289  -20.5650   10.3942 C   0  0  0  0  0  0  0  0  0  0  0  0
   -8.9865  -19.4464   11.0222 N   0  0  0  0  0  0  0  0  0  0  0  0
   -8.4732  -18.4291   10.3513 C   0  0  0  0  0  0  0  0  0  0  0  0
   -8.2713  -18.4746    9.0403 N   0  0  0  0  0  0  0  0  0  0  0  0
   -8.1275  -17.2748   11.0430 N   0  0  0  0  0  0  0  0  0  0  0  0
   -7.0243  -16.5847   10.6937 C   0  0  0  0  0  0  0  0  0  0  0  0
   -6.3314  -16.9716    9.7730 O   0  0  0  0  0  0  0  0  0  0  0  0
   -6.6572  -15.3559   11.4296 C   0  0  0  0  0  0  0  0  0  0  0  0
   -5.4464  -15.2876   12.1199 C   0  0  0  0  0  0  0  0  0  0  0  0
   -5.1094  -14.1380   12.8043 C   0  0  0  0  0  0  0  0  0  0  0  0
   -5.9701  -13.0544   12.8076 C   0  0  0  0  0  0  0  0  0  0  0  0
   -7.1729  -13.1165   12.1253 C   0  0  0  0  0  0  0  0  0  0  0  0
   -7.5184  -14.2570   11.4323 C   0  0  0  0  0  0  0  0  0  0  0  0
   -8.8281  -14.3225   10.6901 C   0  0  0  0  0  0  0  0  0  0  0  0
   -4.5075  -16.4669   12.1177 C   0  0  0  0  0  0  0  0  0  0  0  0
  -10.2449  -22.1480   12.1444 C   0  0  0  0  0  0  0  0  0  0  0  0
   -9.4280  -23.2531   12.5863 O   0  0  0  0  0  0  0  0  0  0  0  0
  -10.2827  -24.3078   12.9931 C   0  0  0  0  0  0  0  0  0  0  0  0
   -9.7579  -25.7214   12.8557 C   0  0  0  0  0  0  0  0  0  0  0  0
  -10.7410  -26.5931   13.4639 O   0  0  0  0  0  0  0  0  0  0  0  0
  -12.3098  -26.4555   13.0680 P   0  0  0  0  0  0  0  0  0  0  0  0
  -13.1562  -26.9319   14.1845 O   0  0  0  0  0  0  0  0  0  0  0  0
  -12.6191  -27.3118   11.7401 O   0  0  0  0  0  0  0  0  0  0  0  0
  -12.5907  -24.8730   12.7914 O   0  0  0  0  0  0  0  0  0  0  0  0
  -11.5502  -24.1535   12.1091 C   0  0  0  0  0  0  0  0  0  0  0  0
  -11.7228  -22.6207   12.1711 C   0  0  0  0  0  0  0  0  0  0  0  0
  -12.4597  -22.1324   11.0188 O   0  0  0  0  0  0  0  0  0  0  0  0
  -13.7806  -22.3697   10.9946 C   0  0  0  0  0  0  0  0  0  0  0  0
  -14.2368  -23.3073   11.6047 O   0  0  0  0  0  0  0  0  0  0  0  0
  -14.6945  -21.4659   10.2082 C   0  0  0  0  0  0  0  0  0  0  0  0
  -14.2525  -21.4418    8.7435 C   0  0  0  0  0  0  0  0  0  0  0  0
  -15.1385  -22.3852    7.9282 C   0  0  0  0  0  0  0  0  0  0  0  0
  1  2  1  0
  2  3  2  0
  2 10  1  0
  3  4  1  0
  3  7  1  0
  4  5  2  0
  5  6  1  0
  6  7  1  0
  6 22  1  0
  7  8  2  0
  8  9  1  0
  9 10  2  0
  9 11  1  0
 11 12  1  0
 12 13  2  0
 12 14  1  0
 14 15  2  0
 14 19  1  0
 15 16  1  0
 15 21  1  0
 16 17  2  0
 17 18  1  0
 18 19  2  0
 19 20  1  0
 22 23  1  0
 22 32  1  0
 23 24  1  0
 24 25  1  0
 24 31  1  0
 25 26  1  0
 26 27  1  0
 27 28  2  0
 27 29  1  0
 27 30  1  0
 30 31  1  0
 31 32  1  0
 32 33  1  0
 33 34  1  0
 34 35  2  0
 34 36  1  0
 36 37  1  0
 37 38  1  0
M  END
>  <Gold.Gold.Protein.RotatedWaterAtoms>  (513) 


>  <Gold.Id.Protein>  (513) 


>  <Gold.PLP.Chemscore.CHOScore>  (513) 
0.0000

>  <Gold.PLP.Chemscore.Hbond>  (513) 
2.7104

>  <Gold.PLP.Chemscore.Internal.Correction>  (513) 
2.8216

>  <Gold.PLP.Chemscore.Metal>  (513) 
0.0000

>  <Gold.PLP.Fitness>  (513) 
58.4190

>  <Gold.PLP.PLP>  (513) 
-51.8408

>  <Gold.PLP.ligand.clash>  (513) 
0.0000

>  <Gold.PLP.ligand.torsion>  (513) 
2.1873

>  <Gold.PLP.part.buried>  (513) 
-3.5332

>  <Gold.PLP.part.hbond>  (513) 
-4.7164

>  <Gold.PLP.part.metal>  (513) 
0.0000

>  <Gold.PLP.part.nonpolar>  (513) 
-44.1410

>  <Gold.PLP.part.repulsive>  (513) 
0.0668

>  <Gold.Protein.RotatedAtoms>  (513) 


>  <Gold.Protein.RotatedTorsions>  (513) 


>  <Gold.Protein.RotatedWaterAtoms>  (513) 


>  <Gold.Version>  (513) 
5.3.0

>  <PLP.Chemscore.CHOScore>  (513) 


>  <PLP.Chemscore.Hbond>  (513) 


>  <PLP.Chemscore.Internal.Correction>  (513) 


>  <PLP.Chemscore.Metal>  (513) 


>  <PLP.Fitness>  (513) 


>  <PLP.PLP>  (513) 


>  <PLP.ligand.clash>  (513) 


>  <PLP.ligand.torsion>  (513) 


>  <PLP.part.buried>  (513) 


>  <PLP.part.hbond>  (513) 


>  <PLP.part.metal>  (513) 


>  <PLP.part.nonpolar>  (513) 


>  <PLP.part.repulsive>  (513) 


>  <Version>  (513) 


$$$$
3513|Compound_2148|Compounds_3D_F|sdf|629|dock1|1
     RDKit          3D

 26 29  0  0  0  0  0  0  0  0999 V2000
  -13.4079  -19.4050   13.0154 O   0  0  0  0  0  0  0  0  0  0  0  0
  -12.3522  -19.0886   12.2296 C   0  0  0  0  0  0  0  0  0  0  0  0
  -11.9289  -19.9609   11.2075 C   0  0  0  0  0  0  0  0  0  0  0  0
  -12.3509  -21.1584   10.7665 N   0  0  0  0  0  0  0  0  0  0  0  0
  -11.6172  -21.5523    9.7851 N   0  0  0  0  0  0  0  0  0  0  0  0
  -10.6320  -20.5878    9.5237 N   0  0  0  0  0  0  0  0  0  0  0  0
  -10.8270  -19.5766   10.4236 C   0  0  0  0  0  0  0  0  0  0  0  0
  -10.2278  -18.4160   10.6693 N   0  0  0  0  0  0  0  0  0  0  0  0
  -10.6600  -17.6286   11.6393 C   0  0  0  0  0  0  0  0  0  0  0  0
  -11.6987  -17.9487   12.4016 N   0  0  0  0  0  0  0  0  0  0  0  0
  -10.0078  -16.4238   11.8659 N   0  0  0  0  0  0  0  0  0  0  0  0
   -8.6871  -16.3170   11.6196 C   0  0  0  0  0  0  0  0  0  0  0  0
   -8.0672  -17.2742   11.2003 O   0  0  0  0  0  0  0  0  0  0  0  0
   -7.9924  -15.0342   11.8615 C   0  0  0  0  0  0  0  0  0  0  0  0
   -6.7181  -15.0242   12.4307 C   0  0  0  0  0  0  0  0  0  0  0  0
   -6.0756  -13.8233   12.6538 C   0  0  0  0  0  0  0  0  0  0  0  0
   -6.6909  -12.6323   12.3134 C   0  0  0  0  0  0  0  0  0  0  0  0
   -7.9536  -12.6357   11.7488 C   0  0  0  0  0  0  0  0  0  0  0  0
   -8.6054  -13.8281   11.5155 C   0  0  0  0  0  0  0  0  0  0  0  0
   -6.0465  -16.3213   12.8023 C   0  0  0  0  0  0  0  0  0  0  0  0
   -5.0424  -16.6889   11.7404 C   0  0  0  0  0  0  0  0  0  0  0  0
   -3.7557  -17.0451   12.0986 C   0  0  0  0  0  0  0  0  0  0  0  0
   -2.8356  -17.3826   11.1241 C   0  0  0  0  0  0  0  0  0  0  0  0
   -3.2015  -17.3639    9.7906 C   0  0  0  0  0  0  0  0  0  0  0  0
   -4.4881  -17.0077    9.4324 C   0  0  0  0  0  0  0  0  0  0  0  0
   -5.4098  -16.6747   10.4076 C   0  0  0  0  0  0  0  0  0  0  0  0
  1  2  1  0
  2  3  2  0
  2 10  1  0
  3  4  1  0
  3  7  1  0
  4  5  2  0
  5  6  1  0
  6  7  1  0
  7  8  2  0
  8  9  1  0
  9 10  2  0
  9 11  1  0
 11 12  1  0
 12 13  2  0
 12 14  1  0
 14 15  1  0
 14 19  2  0
 15 16  2  0
 15 20  1  0
 16 17  1  0
 17 18  2  0
 18 19  1  0
 20 21  1  0
 21 22  2  0
 21 26  1  0
 22 23  1  0
 23 24  2  0
 24 25  1  0
 25 26  2  0
M  END
>  <Gold.Gold.Protein.RotatedWaterAtoms>  (514) 


>  <Gold.Id.Protein>  (514) 


>  <Gold.PLP.Chemscore.CHOScore>  (514) 
0.0000

>  <Gold.PLP.Chemscore.Hbond>  (514) 
1.2018

>  <Gold.PLP.Chemscore.Internal.Correction>  (514) 
1.7086

>  <Gold.PLP.Chemscore.Metal>  (514) 
0.0000

>  <Gold.PLP.Fitness>  (514) 
57.7874

>  <Gold.PLP.PLP>  (514) 
-54.9292

>  <Gold.PLP.ligand.clash>  (514) 
0.0318

>  <Gold.PLP.ligand.torsion>  (514) 
1.2119

>  <Gold.PLP.part.buried>  (514) 
-7.4865

>  <Gold.PLP.part.hbond>  (514) 
-3.2520

>  <Gold.PLP.part.metal>  (514) 
0.0000

>  <Gold.PLP.part.nonpolar>  (514) 
-44.2711

>  <Gold.PLP.part.repulsive>  (514) 
0.2637

>  <Gold.Protein.RotatedAtoms>  (514) 


>  <Gold.Protein.RotatedTorsions>  (514) 


>  <Gold.Protein.RotatedWaterAtoms>  (514) 


>  <Gold.Version>  (514) 
5.3.0

>  <PLP.Chemscore.CHOScore>  (514) 


>  <PLP.Chemscore.Hbond>  (514) 


>  <PLP.Chemscore.Internal.Correction>  (514) 


>  <PLP.Chemscore.Metal>  (514) 


>  <PLP.Fitness>  (514) 


>  <PLP.PLP>  (514) 


>  <PLP.ligand.clash>  (514) 


>  <PLP.ligand.torsion>  (514) 


>  <PLP.part.buried>  (514) 


>  <PLP.part.hbond>  (514) 


>  <PLP.part.metal>  (514) 


>  <PLP.part.nonpolar>  (514) 


>  <PLP.part.repulsive>  (514) 


>  <Version>  (514) 


$$$$
3514|Compound_2148|Compounds_3D_F|sdf|629|dock2|1
     RDKit          3D

 26 29  0  0  0  0  0  0  0  0999 V2000
   -8.7640  -14.1262   12.7209 O   0  0  0  0  0  0  0  0  0  0  0  0
   -8.4052  -15.3183   12.1898 C   0  0  0  0  0  0  0  0  0  0  0  0
   -7.0486  -15.6885   12.1034 C   0  0  0  0  0  0  0  0  0  0  0  0
   -5.8938  -15.0944   12.4502 N   0  0  0  0  0  0  0  0  0  0  0  0
   -4.8989  -15.8574   12.1592 N   0  0  0  0  0  0  0  0  0  0  0  0
   -5.3752  -17.0432   11.5795 N   0  0  0  0  0  0  0  0  0  0  0  0
   -6.7383  -16.9399   11.5430 C   0  0  0  0  0  0  0  0  0  0  0  0
   -7.7238  -17.7241   11.1183 N   0  0  0  0  0  0  0  0  0  0  0  0
   -8.9832  -17.3354   11.2198 C   0  0  0  0  0  0  0  0  0  0  0  0
   -9.3230  -16.1647   11.7455 N   0  0  0  0  0  0  0  0  0  0  0  0
   -9.9852  -18.1823   10.7648 N   0  0  0  0  0  0  0  0  0  0  0  0
  -11.1856  -18.1945   11.3775 C   0  0  0  0  0  0  0  0  0  0  0  0
  -11.3908  -17.4657   12.3278 O   0  0  0  0  0  0  0  0  0  0  0  0
  -12.2524  -19.0968   10.8932 C   0  0  0  0  0  0  0  0  0  0  0  0
  -12.0951  -20.4805   10.9861 C   0  0  0  0  0  0  0  0  0  0  0  0
  -13.0947  -21.3167   10.5320 C   0  0  0  0  0  0  0  0  0  0  0  0
  -14.2504  -20.7865    9.9877 C   0  0  0  0  0  0  0  0  0  0  0  0
  -14.4122  -19.4160    9.8932 C   0  0  0  0  0  0  0  0  0  0  0  0
  -13.4241  -18.5684   10.3473 C   0  0  0  0  0  0  0  0  0  0  0  0
  -10.8362  -21.0596   11.5789 C   0  0  0  0  0  0  0  0  0  0  0  0
  -11.0844  -21.4327   13.0176 C   0  0  0  0  0  0  0  0  0  0  0  0
  -10.2614  -22.3478   13.6469 C   0  0  0  0  0  0  0  0  0  0  0  0
  -10.4893  -22.6890   14.9667 C   0  0  0  0  0  0  0  0  0  0  0  0
  -11.5407  -22.1155   15.6581 C   0  0  0  0  0  0  0  0  0  0  0  0
  -12.3638  -21.2004   15.0288 C   0  0  0  0  0  0  0  0  0  0  0  0
  -12.1327  -20.8556   13.7101 C   0  0  0  0  0  0  0  0  0  0  0  0
  1  2  1  0
  2  3  2  0
  2 10  1  0
  3  4  1  0
  3  7  1  0
  4  5  2  0
  5  6  1  0
  6  7  1  0
  7  8  2  0
  8  9  1  0
  9 10  2  0
  9 11  1  0
 11 12  1  0
 12 13  2  0
 12 14  1  0
 14 15  1  0
 14 19  2  0
 15 16  2  0
 15 20  1  0
 16 17  1  0
 17 18  2  0
 18 19  1  0
 20 21  1  0
 21 22  2  0
 21 26  1  0
 22 23  1  0
 23 24  2  0
 24 25  1  0
 25 26  2  0
M  END
>  <Gold.Gold.Protein.RotatedWaterAtoms>  (515) 


>  <Gold.Id.Protein>  (515) 


>  <Gold.PLP.Chemscore.CHOScore>  (515) 
0.0000

>  <Gold.PLP.Chemscore.Hbond>  (515) 
2.9920

>  <Gold.PLP.Chemscore.Internal.Correction>  (515) 
1.7086

>  <Gold.PLP.Chemscore.Metal>  (515) 
0.0000

>  <Gold.PLP.Fitness>  (515) 
56.7558

>  <Gold.PLP.PLP>  (515) 
-50.1733

>  <Gold.PLP.ligand.clash>  (515) 
0.0000

>  <Gold.PLP.ligand.torsion>  (515) 
2.0511

>  <Gold.PLP.part.buried>  (515) 
-8.3016

>  <Gold.PLP.part.hbond>  (515) 
-4.0000

>  <Gold.PLP.part.metal>  (515) 
0.0000

>  <Gold.PLP.part.nonpolar>  (515) 
-39.2217

>  <Gold.PLP.part.repulsive>  (515) 
0.4650

>  <Gold.Protein.RotatedAtoms>  (515) 


>  <Gold.Protein.RotatedTorsions>  (515) 


>  <Gold.Protein.RotatedWaterAtoms>  (515) 


>  <Gold.Version>  (515) 
5.3.0

>  <PLP.Chemscore.CHOScore>  (515) 


>  <PLP.Chemscore.Hbond>  (515) 


>  <PLP.Chemscore.Internal.Correction>  (515) 


>  <PLP.Chemscore.Metal>  (515) 


>  <PLP.Fitness>  (515) 


>  <PLP.PLP>  (515) 


>  <PLP.ligand.clash>  (515) 


>  <PLP.ligand.torsion>  (515) 


>  <PLP.part.buried>  (515) 


>  <PLP.part.hbond>  (515) 


>  <PLP.part.metal>  (515) 


>  <PLP.part.nonpolar>  (515) 


>  <PLP.part.repulsive>  (515) 


>  <Version>  (515) 


$$$$
3515|Compound_2148|Compounds_3D_F|sdf|629|dock3|1
     RDKit          3D

 26 29  0  0  0  0  0  0  0  0999 V2000
  -13.9355  -18.2656   12.8394 O   0  0  0  0  0  0  0  0  0  0  0  0
  -12.9405  -19.0873   12.4313 C   0  0  0  0  0  0  0  0  0  0  0  0
  -12.9257  -20.4437   12.8119 C   0  0  0  0  0  0  0  0  0  0  0  0
  -13.7350  -21.2134   13.5597 N   0  0  0  0  0  0  0  0  0  0  0  0
  -13.2796  -22.4162   13.6100 N   0  0  0  0  0  0  0  0  0  0  0  0
  -12.0938  -22.4968   12.8639 N   0  0  0  0  0  0  0  0  0  0  0  0
  -11.8665  -21.2477   12.3557 C   0  0  0  0  0  0  0  0  0  0  0  0
  -10.9247  -20.7081   11.5887 N   0  0  0  0  0  0  0  0  0  0  0  0
  -10.9796  -19.4298   11.2561 C   0  0  0  0  0  0  0  0  0  0  0  0
  -11.9626  -18.6343   11.6602 N   0  0  0  0  0  0  0  0  0  0  0  0
   -9.9770  -18.9021   10.4532 N   0  0  0  0  0  0  0  0  0  0  0  0
   -9.6084  -17.6137   10.5967 C   0  0  0  0  0  0  0  0  0  0  0  0
  -10.1534  -16.9141   11.4272 O   0  0  0  0  0  0  0  0  0  0  0  0
   -8.5411  -17.0516    9.7413 C   0  0  0  0  0  0  0  0  0  0  0  0
   -7.5896  -16.1876   10.2856 C   0  0  0  0  0  0  0  0  0  0  0  0
   -6.5963  -15.6665    9.4816 C   0  0  0  0  0  0  0  0  0  0  0  0
   -6.5416  -15.9998    8.1403 C   0  0  0  0  0  0  0  0  0  0  0  0
   -7.4817  -16.8557    7.5952 C   0  0  0  0  0  0  0  0  0  0  0  0
   -8.4767  -17.3878    8.3875 C   0  0  0  0  0  0  0  0  0  0  0  0
   -7.6480  -15.8235   11.7470 C   0  0  0  0  0  0  0  0  0  0  0  0
   -7.4103  -14.3439   11.9055 C   0  0  0  0  0  0  0  0  0  0  0  0
   -6.1877  -13.8842   12.3580 C   0  0  0  0  0  0  0  0  0  0  0  0
   -5.9703  -12.5270   12.5026 C   0  0  0  0  0  0  0  0  0  0  0  0
   -6.9756  -11.6285   12.1951 C   0  0  0  0  0  0  0  0  0  0  0  0
   -8.1982  -12.0881   11.7426 C   0  0  0  0  0  0  0  0  0  0  0  0
   -8.4138  -13.4455   11.5934 C   0  0  0  0  0  0  0  0  0  0  0  0
  1  2  1  0
  2  3  2  0
  2 10  1  0
  3  4  1  0
  3  7  1  0
  4  5  2  0
  5  6  1  0
  6  7  1  0
  7  8  2  0
  8  9  1  0
  9 10  2  0
  9 11  1  0
 11 12  1  0
 12 13  2  0
 12 14  1  0
 14 15  1  0
 14 19  2  0
 15 16  2  0
 15 20  1  0
 16 17  1  0
 17 18  2  0
 18 19  1  0
 20 21  1  0
 21 22  2  0
 21 26  1  0
 22 23  1  0
 23 24  2  0
 24 25  1  0
 25 26  2  0
M  END
>  <Gold.Gold.Protein.RotatedWaterAtoms>  (516) 


>  <Gold.Id.Protein>  (516) 


>  <Gold.PLP.Chemscore.CHOScore>  (516) 
0.0000

>  <Gold.PLP.Chemscore.Hbond>  (516) 
2.5068

>  <Gold.PLP.Chemscore.Internal.Correction>  (516) 
1.7086

>  <Gold.PLP.Chemscore.Metal>  (516) 
0.0000

>  <Gold.PLP.Fitness>  (516) 
60.8699

>  <Gold.PLP.PLP>  (516) 
-54.1580

>  <Gold.PLP.ligand.clash>  (516) 
0.0000

>  <Gold.PLP.ligand.torsion>  (516) 
1.2585

>  <Gold.PLP.part.buried>  (516) 
-11.2628

>  <Gold.PLP.part.hbond>  (516) 
-2.6484

>  <Gold.PLP.part.metal>  (516) 
0.0000

>  <Gold.PLP.part.nonpolar>  (516) 
-40.5974

>  <Gold.PLP.part.repulsive>  (516) 
0.8694

>  <Gold.Protein.RotatedAtoms>  (516) 


>  <Gold.Protein.RotatedTorsions>  (516) 


>  <Gold.Protein.RotatedWaterAtoms>  (516) 


>  <Gold.Version>  (516) 
5.3.0

>  <PLP.Chemscore.CHOScore>  (516) 


>  <PLP.Chemscore.Hbond>  (516) 


>  <PLP.Chemscore.Internal.Correction>  (516) 


>  <PLP.Chemscore.Metal>  (516) 


>  <PLP.Fitness>  (516) 


>  <PLP.PLP>  (516) 


>  <PLP.ligand.clash>  (516) 


>  <PLP.ligand.torsion>  (516) 


>  <PLP.part.buried>  (516) 


>  <PLP.part.hbond>  (516) 


>  <PLP.part.metal>  (516) 


>  <PLP.part.nonpolar>  (516) 


>  <PLP.part.repulsive>  (516) 


>  <Version>  (516) 


$$$$
3516|Compound_2148|Compounds_3D_F|sdf|629|dock4|1
     RDKit          3D

 26 29  0  0  0  0  0  0  0  0999 V2000
   -9.4745  -20.3110    9.9954 O   0  0  0  0  0  0  0  0  0  0  0  0
  -10.0980  -19.3674   10.7389 C   0  0  0  0  0  0  0  0  0  0  0  0
  -11.4427  -19.5294   11.1268 C   0  0  0  0  0  0  0  0  0  0  0  0
  -12.3655  -20.4853   10.9232 N   0  0  0  0  0  0  0  0  0  0  0  0
  -13.4717  -20.1615   11.4959 N   0  0  0  0  0  0  0  0  0  0  0  0
  -13.3213  -18.9193   12.1311 N   0  0  0  0  0  0  0  0  0  0  0  0
  -12.0354  -18.5155   11.8996 C   0  0  0  0  0  0  0  0  0  0  0  0
  -11.3159  -17.4498   12.2356 N   0  0  0  0  0  0  0  0  0  0  0  0
  -10.0563  -17.3404   11.8494 C   0  0  0  0  0  0  0  0  0  0  0  0
   -9.4546  -18.2743   11.1226 N   0  0  0  0  0  0  0  0  0  0  0  0
   -9.3368  -16.2120   12.2199 N   0  0  0  0  0  0  0  0  0  0  0  0
   -8.4702  -15.6519   11.3530 C   0  0  0  0  0  0  0  0  0  0  0  0
   -8.3179  -16.1342   10.2482 O   0  0  0  0  0  0  0  0  0  0  0  0
   -7.7036  -14.4505   11.7478 C   0  0  0  0  0  0  0  0  0  0  0  0
   -6.5026  -14.5843   12.4461 C   0  0  0  0  0  0  0  0  0  0  0  0
   -5.7923  -13.4589   12.8116 C   0  0  0  0  0  0  0  0  0  0  0  0
   -6.2673  -12.2013   12.4861 C   0  0  0  0  0  0  0  0  0  0  0  0
   -7.4568  -12.0623   11.7939 C   0  0  0  0  0  0  0  0  0  0  0  0
   -8.1745  -13.1780   11.4179 C   0  0  0  0  0  0  0  0  0  0  0  0
   -5.9839  -15.9541   12.8017 C   0  0  0  0  0  0  0  0  0  0  0  0
   -5.1460  -16.4837   11.6667 C   0  0  0  0  0  0  0  0  0  0  0  0
   -5.5078  -16.2211   10.3586 C   0  0  0  0  0  0  0  0  0  0  0  0
   -4.7384  -16.7068    9.3182 C   0  0  0  0  0  0  0  0  0  0  0  0
   -3.6069  -17.4556    9.5851 C   0  0  0  0  0  0  0  0  0  0  0  0
   -3.2451  -17.7182   10.8931 C   0  0  0  0  0  0  0  0  0  0  0  0
   -4.0121  -17.2282   11.9338 C   0  0  0  0  0  0  0  0  0  0  0  0
  1  2  1  0
  2  3  2  0
  2 10  1  0
  3  4  1  0
  3  7  1  0
  4  5  2  0
  5  6  1  0
  6  7  1  0
  7  8  2  0
  8  9  1  0
  9 10  2  0
  9 11  1  0
 11 12  1  0
 12 13  2  0
 12 14  1  0
 14 15  1  0
 14 19  2  0
 15 16  2  0
 15 20  1  0
 16 17  1  0
 17 18  2  0
 18 19  1  0
 20 21  1  0
 21 22  2  0
 21 26  1  0
 22 23  1  0
 23 24  2  0
 24 25  1  0
 25 26  2  0
M  END
>  <Gold.Gold.Protein.RotatedWaterAtoms>  (517) 


>  <Gold.Id.Protein>  (517) 


>  <Gold.PLP.Chemscore.CHOScore>  (517) 
0.0000

>  <Gold.PLP.Chemscore.Hbond>  (517) 
1.0446

>  <Gold.PLP.Chemscore.Internal.Correction>  (517) 
1.7086

>  <Gold.PLP.Chemscore.Metal>  (517) 
0.0000

>  <Gold.PLP.Fitness>  (517) 
55.9996

>  <Gold.PLP.PLP>  (517) 
-56.1111

>  <Gold.PLP.ligand.clash>  (517) 
0.0000

>  <Gold.PLP.ligand.torsion>  (517) 
2.4769

>  <Gold.PLP.part.buried>  (517) 
-8.0303

>  <Gold.PLP.part.hbond>  (517) 
-3.3481

>  <Gold.PLP.part.metal>  (517) 
0.0000

>  <Gold.PLP.part.nonpolar>  (517) 
-45.3977

>  <Gold.PLP.part.repulsive>  (517) 
0.4114

>  <Gold.Protein.RotatedAtoms>  (517) 


>  <Gold.Protein.RotatedTorsions>  (517) 


>  <Gold.Protein.RotatedWaterAtoms>  (517) 


>  <Gold.Version>  (517) 
5.3.0

>  <PLP.Chemscore.CHOScore>  (517) 


>  <PLP.Chemscore.Hbond>  (517) 


>  <PLP.Chemscore.Internal.Correction>  (517) 


>  <PLP.Chemscore.Metal>  (517) 


>  <PLP.Fitness>  (517) 


>  <PLP.PLP>  (517) 


>  <PLP.ligand.clash>  (517) 


>  <PLP.ligand.torsion>  (517) 


>  <PLP.part.buried>  (517) 


>  <PLP.part.hbond>  (517) 


>  <PLP.part.metal>  (517) 


>  <PLP.part.nonpolar>  (517) 


>  <PLP.part.repulsive>  (517) 


>  <Version>  (517) 


$$$$
3517|Compound_2148|Compounds_3D_F|sdf|629|dock5|1
     RDKit          3D

 26 29  0  0  0  0  0  0  0  0999 V2000
  -13.5615  -19.2931   13.1115 O   0  0  0  0  0  0  0  0  0  0  0  0
  -12.6399  -18.8999   12.2017 C   0  0  0  0  0  0  0  0  0  0  0  0
  -12.5635  -19.5217   10.9398 C   0  0  0  0  0  0  0  0  0  0  0  0
  -13.2456  -20.5153   10.3447 N   0  0  0  0  0  0  0  0  0  0  0  0
  -12.7853  -20.7207    9.1604 N   0  0  0  0  0  0  0  0  0  0  0  0
  -11.7291  -19.8311    8.9105 N   0  0  0  0  0  0  0  0  0  0  0  0
  -11.5859  -19.0687   10.0367 C   0  0  0  0  0  0  0  0  0  0  0  0
  -10.7754  -18.0796   10.3986 N   0  0  0  0  0  0  0  0  0  0  0  0
  -10.8838  -17.5250   11.5938 C   0  0  0  0  0  0  0  0  0  0  0  0
  -11.7941  -17.9175   12.4768 N   0  0  0  0  0  0  0  0  0  0  0  0
  -10.0187  -16.4940   11.9357 N   0  0  0  0  0  0  0  0  0  0  0  0
   -8.7607  -16.4832   11.4523 C   0  0  0  0  0  0  0  0  0  0  0  0
   -8.3834  -17.3750   10.7184 O   0  0  0  0  0  0  0  0  0  0  0  0
   -7.8392  -15.3856   11.8168 C   0  0  0  0  0  0  0  0  0  0  0  0
   -6.5054  -15.6627   12.1209 C   0  0  0  0  0  0  0  0  0  0  0  0
   -5.6509  -14.6336   12.4605 C   0  0  0  0  0  0  0  0  0  0  0  0
   -6.1130  -13.3305   12.4984 C   0  0  0  0  0  0  0  0  0  0  0  0
   -7.4337  -13.0495   12.1978 C   0  0  0  0  0  0  0  0  0  0  0  0
   -8.2976  -14.0670   11.8520 C   0  0  0  0  0  0  0  0  0  0  0  0
   -6.0005  -17.0823   12.0802 C   0  0  0  0  0  0  0  0  0  0  0  0
   -4.8362  -17.1737   11.1279 C   0  0  0  0  0  0  0  0  0  0  0  0
   -3.5834  -17.5201   11.5983 C   0  0  0  0  0  0  0  0  0  0  0  0
   -2.5161  -17.6043   10.7242 C   0  0  0  0  0  0  0  0  0  0  0  0
   -2.7008  -17.3419    9.3791 C   0  0  0  0  0  0  0  0  0  0  0  0
   -3.9536  -16.9956    8.9087 C   0  0  0  0  0  0  0  0  0  0  0  0
   -5.0221  -16.9161    9.7824 C   0  0  0  0  0  0  0  0  0  0  0  0
  1  2  1  0
  2  3  2  0
  2 10  1  0
  3  4  1  0
  3  7  1  0
  4  5  2  0
  5  6  1  0
  6  7  1  0
  7  8  2  0
  8  9  1  0
  9 10  2  0
  9 11  1  0
 11 12  1  0
 12 13  2  0
 12 14  1  0
 14 15  1  0
 14 19  2  0
 15 16  2  0
 15 20  1  0
 16 17  1  0
 17 18  2  0
 18 19  1  0
 20 21  1  0
 21 22  2  0
 21 26  1  0
 22 23  1  0
 23 24  2  0
 24 25  1  0
 25 26  2  0
M  END
>  <Gold.Gold.Protein.RotatedWaterAtoms>  (518) 


>  <Gold.Id.Protein>  (518) 


>  <Gold.PLP.Chemscore.CHOScore>  (518) 
0.0000

>  <Gold.PLP.Chemscore.Hbond>  (518) 
1.7840

>  <Gold.PLP.Chemscore.Internal.Correction>  (518) 
1.7086

>  <Gold.PLP.Chemscore.Metal>  (518) 
0.0000

>  <Gold.PLP.Fitness>  (518) 
56.2002

>  <Gold.PLP.PLP>  (518) 
-50.9428

>  <Gold.PLP.ligand.clash>  (518) 
0.0000

>  <Gold.PLP.ligand.torsion>  (518) 
0.9016

>  <Gold.PLP.part.buried>  (518) 
-3.9603

>  <Gold.PLP.part.hbond>  (518) 
-4.2796

>  <Gold.PLP.part.metal>  (518) 
0.0000

>  <Gold.PLP.part.nonpolar>  (518) 
-42.3325

>  <Gold.PLP.part.repulsive>  (518) 
0.4338

>  <Gold.Protein.RotatedAtoms>  (518) 


>  <Gold.Protein.RotatedTorsions>  (518) 


>  <Gold.Protein.RotatedWaterAtoms>  (518) 


>  <Gold.Version>  (518) 
5.3.0

>  <PLP.Chemscore.CHOScore>  (518) 


>  <PLP.Chemscore.Hbond>  (518) 


>  <PLP.Chemscore.Internal.Correction>  (518) 


>  <PLP.Chemscore.Metal>  (518) 


>  <PLP.Fitness>  (518) 


>  <PLP.PLP>  (518) 


>  <PLP.ligand.clash>  (518) 


>  <PLP.ligand.torsion>  (518) 


>  <PLP.part.buried>  (518) 


>  <PLP.part.hbond>  (518) 


>  <PLP.part.metal>  (518) 


>  <PLP.part.nonpolar>  (518) 


>  <PLP.part.repulsive>  (518) 


>  <Version>  (518) 


$$$$
3518|Compound_2148|Compounds_3D_F|sdf|629|dock6|1
     RDKit          3D

 26 29  0  0  0  0  0  0  0  0999 V2000
  -13.3656  -18.3641   12.1047 O   0  0  0  0  0  0  0  0  0  0  0  0
  -12.0294  -18.4195   11.8963 C   0  0  0  0  0  0  0  0  0  0  0  0
  -11.4350  -19.5690   11.3395 C   0  0  0  0  0  0  0  0  0  0  0  0
  -11.9076  -20.7546   10.9178 N   0  0  0  0  0  0  0  0  0  0  0  0
  -10.9425  -21.4859   10.4814 N   0  0  0  0  0  0  0  0  0  0  0  0
   -9.7340  -20.7830   10.6026 N   0  0  0  0  0  0  0  0  0  0  0  0
  -10.0425  -19.5665   11.1459 C   0  0  0  0  0  0  0  0  0  0  0  0
   -9.3405  -18.4919   11.4903 N   0  0  0  0  0  0  0  0  0  0  0  0
   -9.9410  -17.4348   12.0094 C   0  0  0  0  0  0  0  0  0  0  0  0
  -11.2532  -17.3911   12.2063 N   0  0  0  0  0  0  0  0  0  0  0  0
   -9.1737  -16.3308   12.3570 N   0  0  0  0  0  0  0  0  0  0  0  0
   -8.6457  -15.5486   11.3948 C   0  0  0  0  0  0  0  0  0  0  0  0
   -8.8402  -15.8094   10.2241 O   0  0  0  0  0  0  0  0  0  0  0  0
   -7.8281  -14.3733   11.7649 C   0  0  0  0  0  0  0  0  0  0  0  0
   -6.6199  -14.5458   12.4421 C   0  0  0  0  0  0  0  0  0  0  0  0
   -5.8619  -13.4446   12.7846 C   0  0  0  0  0  0  0  0  0  0  0  0
   -6.2963  -12.1729   12.4570 C   0  0  0  0  0  0  0  0  0  0  0  0
   -7.4927  -11.9955   11.7858 C   0  0  0  0  0  0  0  0  0  0  0  0
   -8.2579  -13.0869   11.4328 C   0  0  0  0  0  0  0  0  0  0  0  0
   -6.1454  -15.9309   12.7998 C   0  0  0  0  0  0  0  0  0  0  0  0
   -5.1921  -16.4238   11.7419 C   0  0  0  0  0  0  0  0  0  0  0  0
   -3.9293  -16.8594   12.0975 C   0  0  0  0  0  0  0  0  0  0  0  0
   -3.0557  -17.3118   11.1267 C   0  0  0  0  0  0  0  0  0  0  0  0
   -3.4441  -17.3285    9.7996 C   0  0  0  0  0  0  0  0  0  0  0  0
   -4.7069  -16.8928    9.4441 C   0  0  0  0  0  0  0  0  0  0  0  0
   -5.5823  -16.4449   10.4158 C   0  0  0  0  0  0  0  0  0  0  0  0
  1  2  1  0
  2  3  2  0
  2 10  1  0
  3  4  1  0
  3  7  1  0
  4  5  2  0
  5  6  1  0
  6  7  1  0
  7  8  2  0
  8  9  1  0
  9 10  2  0
  9 11  1  0
 11 12  1  0
 12 13  2  0
 12 14  1  0
 14 15  1  0
 14 19  2  0
 15 16  2  0
 15 20  1  0
 16 17  1  0
 17 18  2  0
 18 19  1  0
 20 21  1  0
 21 22  2  0
 21 26  1  0
 22 23  1  0
 23 24  2  0
 24 25  1  0
 25 26  2  0
M  END
>  <Gold.Gold.Protein.RotatedWaterAtoms>  (519) 


>  <Gold.Id.Protein>  (519) 


>  <Gold.PLP.Chemscore.CHOScore>  (519) 
0.0000

>  <Gold.PLP.Chemscore.Hbond>  (519) 
1.5365

>  <Gold.PLP.Chemscore.Internal.Correction>  (519) 
1.7086

>  <Gold.PLP.Chemscore.Metal>  (519) 
0.0000

>  <Gold.PLP.Fitness>  (519) 
58.3944

>  <Gold.PLP.PLP>  (519) 
-56.5878

>  <Gold.PLP.ligand.clash>  (519) 
0.0000

>  <Gold.PLP.ligand.torsion>  (519) 
2.2558

>  <Gold.PLP.part.buried>  (519) 
-8.2049

>  <Gold.PLP.part.hbond>  (519) 
-3.6724

>  <Gold.PLP.part.metal>  (519) 
0.0000

>  <Gold.PLP.part.nonpolar>  (519) 
-46.2613

>  <Gold.PLP.part.repulsive>  (519) 
0.2768

>  <Gold.Protein.RotatedAtoms>  (519) 


>  <Gold.Protein.RotatedTorsions>  (519) 


>  <Gold.Protein.RotatedWaterAtoms>  (519) 


>  <Gold.Version>  (519) 
5.3.0

>  <PLP.Chemscore.CHOScore>  (519) 


>  <PLP.Chemscore.Hbond>  (519) 


>  <PLP.Chemscore.Internal.Correction>  (519) 


>  <PLP.Chemscore.Metal>  (519) 


>  <PLP.Fitness>  (519) 


>  <PLP.PLP>  (519) 


>  <PLP.ligand.clash>  (519) 


>  <PLP.ligand.torsion>  (519) 


>  <PLP.part.buried>  (519) 


>  <PLP.part.hbond>  (519) 


>  <PLP.part.metal>  (519) 


>  <PLP.part.nonpolar>  (519) 


>  <PLP.part.repulsive>  (519) 


>  <Version>  (519) 


$$$$
3519|Compound_2148|Compounds_3D_F|sdf|629|dock7|1
     RDKit          3D

 26 29  0  0  0  0  0  0  0  0999 V2000
  -13.5466  -18.5358   12.5505 O   0  0  0  0  0  0  0  0  0  0  0  0
  -12.3655  -18.4685   11.8929 C   0  0  0  0  0  0  0  0  0  0  0  0
  -12.1020  -19.3156   10.7985 C   0  0  0  0  0  0  0  0  0  0  0  0
  -12.7996  -20.2798   10.1737 N   0  0  0  0  0  0  0  0  0  0  0  0
  -12.1077  -20.7699    9.2054 N   0  0  0  0  0  0  0  0  0  0  0  0
  -10.8646  -20.1215    9.1464 N   0  0  0  0  0  0  0  0  0  0  0  0
  -10.8576  -19.1980   10.1550 C   0  0  0  0  0  0  0  0  0  0  0  0
   -9.9807  -18.3014   10.5949 N   0  0  0  0  0  0  0  0  0  0  0  0
  -10.2714  -17.5267   11.6259 C   0  0  0  0  0  0  0  0  0  0  0  0
  -11.4348  -17.6000   12.2612 N   0  0  0  0  0  0  0  0  0  0  0  0
   -9.3293  -16.6019   12.0566 N   0  0  0  0  0  0  0  0  0  0  0  0
   -8.8361  -15.6921   11.1933 C   0  0  0  0  0  0  0  0  0  0  0  0
   -9.2148  -15.6812   10.0389 O   0  0  0  0  0  0  0  0  0  0  0  0
   -7.8324  -14.7076   11.6518 C   0  0  0  0  0  0  0  0  0  0  0  0
   -6.6111  -15.1418   12.1696 C   0  0  0  0  0  0  0  0  0  0  0  0
   -5.6790  -14.2176   12.5958 C   0  0  0  0  0  0  0  0  0  0  0  0
   -5.9523  -12.8645   12.5094 C   0  0  0  0  0  0  0  0  0  0  0  0
   -7.1607  -12.4280   11.9970 C   0  0  0  0  0  0  0  0  0  0  0  0
   -8.0994  -13.3399   11.5627 C   0  0  0  0  0  0  0  0  0  0  0  0
   -6.3121  -16.6160   12.2645 C   0  0  0  0  0  0  0  0  0  0  0  0
   -5.0961  -16.9360   11.4339 C   0  0  0  0  0  0  0  0  0  0  0  0
   -3.9171  -17.3120   12.0498 C   0  0  0  0  0  0  0  0  0  0  0  0
   -2.8024  -17.6059   11.2873 C   0  0  0  0  0  0  0  0  0  0  0  0
   -2.8660  -17.5236    9.9083 C   0  0  0  0  0  0  0  0  0  0  0  0
   -4.0450  -17.1476    9.2924 C   0  0  0  0  0  0  0  0  0  0  0  0
   -5.1612  -16.8583   10.0550 C   0  0  0  0  0  0  0  0  0  0  0  0
  1  2  1  0
  2  3  2  0
  2 10  1  0
  3  4  1  0
  3  7  1  0
  4  5  2  0
  5  6  1  0
  6  7  1  0
  7  8  2  0
  8  9  1  0
  9 10  2  0
  9 11  1  0
 11 12  1  0
 12 13  2  0
 12 14  1  0
 14 15  1  0
 14 19  2  0
 15 16  2  0
 15 20  1  0
 16 17  1  0
 17 18  2  0
 18 19  1  0
 20 21  1  0
 21 22  2  0
 21 26  1  0
 22 23  1  0
 23 24  2  0
 24 25  1  0
 25 26  2  0
M  END
>  <Gold.Gold.Protein.RotatedWaterAtoms>  (520) 


>  <Gold.Id.Protein>  (520) 


>  <Gold.PLP.Chemscore.CHOScore>  (520) 
0.0000

>  <Gold.PLP.Chemscore.Hbond>  (520) 
1.0000

>  <Gold.PLP.Chemscore.Internal.Correction>  (520) 
1.7086

>  <Gold.PLP.Chemscore.Metal>  (520) 
0.0000

>  <Gold.PLP.Fitness>  (520) 
56.8719

>  <Gold.PLP.PLP>  (520) 
-55.5773

>  <Gold.PLP.ligand.clash>  (520) 
0.0000

>  <Gold.PLP.ligand.torsion>  (520) 
1.7070

>  <Gold.PLP.part.buried>  (520) 
-7.2005

>  <Gold.PLP.part.hbond>  (520) 
-4.8475

>  <Gold.PLP.part.metal>  (520) 
0.0000

>  <Gold.PLP.part.nonpolar>  (520) 
-44.1622

>  <Gold.PLP.part.repulsive>  (520) 
0.4010

>  <Gold.Protein.RotatedAtoms>  (520) 


>  <Gold.Protein.RotatedTorsions>  (520) 


>  <Gold.Protein.RotatedWaterAtoms>  (520) 


>  <Gold.Version>  (520) 
5.3.0

>  <PLP.Chemscore.CHOScore>  (520) 


>  <PLP.Chemscore.Hbond>  (520) 


>  <PLP.Chemscore.Internal.Correction>  (520) 


>  <PLP.Chemscore.Metal>  (520) 


>  <PLP.Fitness>  (520) 


>  <PLP.PLP>  (520) 


>  <PLP.ligand.clash>  (520) 


>  <PLP.ligand.torsion>  (520) 


>  <PLP.part.buried>  (520) 


>  <PLP.part.hbond>  (520) 


>  <PLP.part.metal>  (520) 


>  <PLP.part.nonpolar>  (520) 


>  <PLP.part.repulsive>  (520) 


>  <Version>  (520) 


$$$$
3520|Compound_2148|Compounds_3D_F|sdf|629|dock8|1
     RDKit          3D

 26 29  0  0  0  0  0  0  0  0999 V2000
  -13.5555  -18.0089   12.7980 O   0  0  0  0  0  0  0  0  0  0  0  0
  -12.2647  -17.9557   12.3943 C   0  0  0  0  0  0  0  0  0  0  0  0
  -11.6690  -19.0530   11.7418 C   0  0  0  0  0  0  0  0  0  0  0  0
  -12.1021  -20.2730   11.3800 N   0  0  0  0  0  0  0  0  0  0  0  0
  -11.1566  -20.9234   10.7972 N   0  0  0  0  0  0  0  0  0  0  0  0
  -10.0038  -20.1247   10.7474 N   0  0  0  0  0  0  0  0  0  0  0  0
  -10.3252  -18.9375   11.3451 C   0  0  0  0  0  0  0  0  0  0  0  0
   -9.6685  -17.8094   11.5953 N   0  0  0  0  0  0  0  0  0  0  0  0
  -10.2685  -16.8047   12.2102 C   0  0  0  0  0  0  0  0  0  0  0  0
  -11.5363  -16.8677   12.5989 N   0  0  0  0  0  0  0  0  0  0  0  0
   -9.5493  -15.6422   12.4543 N   0  0  0  0  0  0  0  0  0  0  0  0
   -8.8963  -15.0308   11.4462 C   0  0  0  0  0  0  0  0  0  0  0  0
   -8.9361  -15.4967   10.3247 O   0  0  0  0  0  0  0  0  0  0  0  0
   -8.1299  -13.7932   11.7062 C   0  0  0  0  0  0  0  0  0  0  0  0
   -6.8543  -13.8643   12.2681 C   0  0  0  0  0  0  0  0  0  0  0  0
   -6.1446  -12.7052   12.5083 C   0  0  0  0  0  0  0  0  0  0  0  0
   -6.6941  -11.4759   12.1921 C   0  0  0  0  0  0  0  0  0  0  0  0
   -7.9578  -11.3990   11.6349 C   0  0  0  0  0  0  0  0  0  0  0  0
   -8.6763  -12.5489   11.3847 C   0  0  0  0  0  0  0  0  0  0  0  0
   -6.2543  -15.2032   12.6133 C   0  0  0  0  0  0  0  0  0  0  0  0
   -6.0564  -16.0045   11.3526 C   0  0  0  0  0  0  0  0  0  0  0  0
   -5.8649  -17.3716   11.4248 C   0  0  0  0  0  0  0  0  0  0  0  0
   -5.6840  -18.1060   10.2679 C   0  0  0  0  0  0  0  0  0  0  0  0
   -5.6941  -17.4737    9.0381 C   0  0  0  0  0  0  0  0  0  0  0  0
   -5.8856  -16.1066    8.9659 C   0  0  0  0  0  0  0  0  0  0  0  0
   -6.0713  -15.3729   10.1228 C   0  0  0  0  0  0  0  0  0  0  0  0
  1  2  1  0
  2  3  2  0
  2 10  1  0
  3  4  1  0
  3  7  1  0
  4  5  2  0
  5  6  1  0
  6  7  1  0
  7  8  2  0
  8  9  1  0
  9 10  2  0
  9 11  1  0
 11 12  1  0
 12 13  2  0
 12 14  1  0
 14 15  1  0
 14 19  2  0
 15 16  2  0
 15 20  1  0
 16 17  1  0
 17 18  2  0
 18 19  1  0
 20 21  1  0
 21 22  2  0
 21 26  1  0
 22 23  1  0
 23 24  2  0
 24 25  1  0
 25 26  2  0
M  END
>  <Gold.Gold.Protein.RotatedWaterAtoms>  (521) 


>  <Gold.Id.Protein>  (521) 


>  <Gold.PLP.Chemscore.CHOScore>  (521) 
0.0000

>  <Gold.PLP.Chemscore.Hbond>  (521) 
1.8268

>  <Gold.PLP.Chemscore.Internal.Correction>  (521) 
1.7086

>  <Gold.PLP.Chemscore.Metal>  (521) 
0.0000

>  <Gold.PLP.Fitness>  (521) 
55.4324

>  <Gold.PLP.PLP>  (521) 
-53.0530

>  <Gold.PLP.ligand.clash>  (521) 
0.4713

>  <Gold.PLP.ligand.torsion>  (521) 
2.1692

>  <Gold.PLP.part.buried>  (521) 
0.3210

>  <Gold.PLP.part.hbond>  (521) 
-6.2912

>  <Gold.PLP.part.metal>  (521) 
0.0000

>  <Gold.PLP.part.nonpolar>  (521) 
-47.5612

>  <Gold.PLP.part.repulsive>  (521) 
0.4288

>  <Gold.Protein.RotatedAtoms>  (521) 


>  <Gold.Protein.RotatedTorsions>  (521) 


>  <Gold.Protein.RotatedWaterAtoms>  (521) 


>  <Gold.Version>  (521) 
5.3.0

>  <PLP.Chemscore.CHOScore>  (521) 


>  <PLP.Chemscore.Hbond>  (521) 


>  <PLP.Chemscore.Internal.Correction>  (521) 


>  <PLP.Chemscore.Metal>  (521) 


>  <PLP.Fitness>  (521) 


>  <PLP.PLP>  (521) 


>  <PLP.ligand.clash>  (521) 


>  <PLP.ligand.torsion>  (521) 


>  <PLP.part.buried>  (521) 


>  <PLP.part.hbond>  (521) 


>  <PLP.part.metal>  (521) 


>  <PLP.part.nonpolar>  (521) 


>  <PLP.part.repulsive>  (521) 


>  <Version>  (521) 


$$$$
3521|Compound_2148|Compounds_3D_F|sdf|629|dock9|1
     RDKit          3D

 26 29  0  0  0  0  0  0  0  0999 V2000
  -13.1107  -19.6996   12.9822 O   0  0  0  0  0  0  0  0  0  0  0  0
  -12.0605  -19.3587   12.1994 C   0  0  0  0  0  0  0  0  0  0  0  0
  -11.6263  -20.2123   11.1661 C   0  0  0  0  0  0  0  0  0  0  0  0
  -12.0321  -21.4101   10.7107 N   0  0  0  0  0  0  0  0  0  0  0  0
  -11.2941  -21.7814    9.7238 N   0  0  0  0  0  0  0  0  0  0  0  0
  -10.3227  -20.8001    9.4734 N   0  0  0  0  0  0  0  0  0  0  0  0
  -10.5307  -19.8030   10.3859 C   0  0  0  0  0  0  0  0  0  0  0  0
   -9.9474  -18.6374   10.6455 N   0  0  0  0  0  0  0  0  0  0  0  0
  -10.3895  -17.8682   11.6255 C   0  0  0  0  0  0  0  0  0  0  0  0
  -11.4227  -18.2120   12.3849 N   0  0  0  0  0  0  0  0  0  0  0  0
   -9.7538  -16.6573   11.8665 N   0  0  0  0  0  0  0  0  0  0  0  0
   -8.4351  -16.5288   11.6196 C   0  0  0  0  0  0  0  0  0  0  0  0
   -7.8026  -17.4719   11.1873 O   0  0  0  0  0  0  0  0  0  0  0  0
   -7.7581  -15.2395   11.8767 C   0  0  0  0  0  0  0  0  0  0  0  0
   -6.4841  -15.2188   12.4463 C   0  0  0  0  0  0  0  0  0  0  0  0
   -5.8581  -14.0120   12.6836 C   0  0  0  0  0  0  0  0  0  0  0  0
   -6.4896  -12.8255   12.3571 C   0  0  0  0  0  0  0  0  0  0  0  0
   -7.7521  -12.8396   11.7921 C   0  0  0  0  0  0  0  0  0  0  0  0
   -8.3875  -14.0380   11.5447 C   0  0  0  0  0  0  0  0  0  0  0  0
   -5.7948  -16.5109   12.8028 C   0  0  0  0  0  0  0  0  0  0  0  0
   -4.8139  -16.8726   11.7176 C   0  0  0  0  0  0  0  0  0  0  0  0
   -5.1979  -16.8155   10.3909 C   0  0  0  0  0  0  0  0  0  0  0  0
   -4.2974  -17.1469    9.3961 C   0  0  0  0  0  0  0  0  0  0  0  0
   -3.0124  -17.5359    9.7273 C   0  0  0  0  0  0  0  0  0  0  0  0
   -2.6284  -17.5930   11.0540 C   0  0  0  0  0  0  0  0  0  0  0  0
   -3.5277  -17.2568   12.0487 C   0  0  0  0  0  0  0  0  0  0  0  0
  1  2  1  0
  2  3  2  0
  2 10  1  0
  3  4  1  0
  3  7  1  0
  4  5  2  0
  5  6  1  0
  6  7  1  0
  7  8  2  0
  8  9  1  0
  9 10  2  0
  9 11  1  0
 11 12  1  0
 12 13  2  0
 12 14  1  0
 14 15  1  0
 14 19  2  0
 15 16  2  0
 15 20  1  0
 16 17  1  0
 17 18  2  0
 18 19  1  0
 20 21  1  0
 21 22  2  0
 21 26  1  0
 22 23  1  0
 23 24  2  0
 24 25  1  0
 25 26  2  0
M  END
>  <Gold.Gold.Protein.RotatedWaterAtoms>  (522) 


>  <Gold.Id.Protein>  (522) 


>  <Gold.PLP.Chemscore.CHOScore>  (522) 
0.0000

>  <Gold.PLP.Chemscore.Hbond>  (522) 
1.2012

>  <Gold.PLP.Chemscore.Internal.Correction>  (522) 
1.7086

>  <Gold.PLP.Chemscore.Metal>  (522) 
0.0000

>  <Gold.PLP.Fitness>  (522) 
57.6134

>  <Gold.PLP.PLP>  (522) 
-54.8626

>  <Gold.PLP.ligand.clash>  (522) 
0.0000

>  <Gold.PLP.ligand.torsion>  (522) 
1.2808

>  <Gold.PLP.part.buried>  (522) 
-9.4372

>  <Gold.PLP.part.hbond>  (522) 
-2.4486

>  <Gold.PLP.part.metal>  (522) 
0.0000

>  <Gold.PLP.part.nonpolar>  (522) 
-43.0186

>  <Gold.PLP.part.repulsive>  (522) 
0.2102

>  <Gold.Protein.RotatedAtoms>  (522) 


>  <Gold.Protein.RotatedTorsions>  (522) 


>  <Gold.Protein.RotatedWaterAtoms>  (522) 


>  <Gold.Version>  (522) 
5.3.0

>  <PLP.Chemscore.CHOScore>  (522) 


>  <PLP.Chemscore.Hbond>  (522) 


>  <PLP.Chemscore.Internal.Correction>  (522) 


>  <PLP.Chemscore.Metal>  (522) 


>  <PLP.Fitness>  (522) 


>  <PLP.PLP>  (522) 


>  <PLP.ligand.clash>  (522) 


>  <PLP.ligand.torsion>  (522) 


>  <PLP.part.buried>  (522) 


>  <PLP.part.hbond>  (522) 


>  <PLP.part.metal>  (522) 


>  <PLP.part.nonpolar>  (522) 


>  <PLP.part.repulsive>  (522) 


>  <Version>  (522) 


$$$$
3522|Compound_196|Compounds_3D_F|sdf|62|dock10|1
     RDKit          3D

 27 29  0  0  0  0  0  0  0  0999 V2000
   -8.8214  -18.9533    8.6846 O   0  0  0  0  0  0  0  0  0  0  0  0
   -9.1746  -18.1554    9.7181 C   0  0  0  0  0  0  0  0  0  0  0  0
  -10.3432  -18.4239   10.4761 C   0  0  0  0  0  0  0  0  0  0  0  0
  -11.1333  -19.4611   10.2069 N   0  0  0  0  0  0  0  0  0  0  0  0
  -12.2055  -19.6681   10.9389 C   0  0  0  0  0  0  0  0  0  0  0  0
  -12.5230  -18.8123   11.9934 C   0  0  0  0  0  0  0  0  0  0  0  0
  -11.7560  -17.7818   12.2781 N   0  0  0  0  0  0  0  0  0  0  0  0
  -10.6620  -17.5524   11.5472 C   0  0  0  0  0  0  0  0  0  0  0  0
   -9.8509  -16.5172   11.7980 N   0  0  0  0  0  0  0  0  0  0  0  0
   -8.7766  -16.3148   11.0603 C   0  0  0  0  0  0  0  0  0  0  0  0
   -8.4370  -17.1099   10.0491 N   0  0  0  0  0  0  0  0  0  0  0  0
   -7.9639  -15.2304   11.3538 N   0  0  0  0  0  0  0  0  0  0  0  0
   -8.4955  -13.9952   11.4479 C   0  0  0  0  0  0  0  0  0  0  0  0
   -9.6874  -13.8326   11.2753 O   0  0  0  0  0  0  0  0  0  0  0  0
   -7.6297  -12.8404   11.7597 C   0  0  0  0  0  0  0  0  0  0  0  0
   -6.3213  -13.0440   12.2058 C   0  0  0  0  0  0  0  0  0  0  0  0
   -5.7075  -14.6563   12.3957 Cl  0  0  0  0  0  0  0  0  0  0  0  0
   -5.5177  -11.9588   12.4956 C   0  0  0  0  0  0  0  0  0  0  0  0
   -6.0053  -10.6731   12.3432 C   0  0  0  0  0  0  0  0  0  0  0  0
   -7.3001  -10.4649   11.9016 C   0  0  0  0  0  0  0  0  0  0  0  0
   -8.1127  -11.5391   11.6039 C   0  0  0  0  0  0  0  0  0  0  0  0
  -13.1010  -20.8410   10.6348 C   0  0  0  0  0  0  0  0  0  0  0  0
  -12.3489  -22.0526   10.7302 O   0  0  0  0  0  0  0  0  0  0  0  0
  -13.6644  -20.7001    9.2189 C   0  0  0  0  0  0  0  0  0  0  0  0
  -14.2666  -19.4124    9.0714 O   0  0  0  0  0  0  0  0  0  0  0  0
  -14.7141  -21.7857    8.9768 C   0  0  0  0  0  0  0  0  0  0  0  0
  -15.4024  -21.5186    7.7532 O   0  0  0  0  0  0  0  0  0  0  0  0
  1  2  1  0
  2  3  2  0
  2 11  1  0
  3  4  1  0
  3  8  1  0
  4  5  2  0
  5  6  1  0
  5 22  1  0
  6  7  2  0
  7  8  1  0
  8  9  2  0
  9 10  1  0
 10 11  2  0
 10 12  1  0
 12 13  1  0
 13 14  2  0
 13 15  1  0
 15 16  2  0
 15 21  1  0
 16 17  1  0
 16 18  1  0
 18 19  2  0
 19 20  1  0
 20 21  2  0
 22 23  1  0
 22 24  1  0
 24 25  1  0
 24 26  1  0
 26 27  1  0
M  END
>  <Gold.Gold.Protein.RotatedWaterAtoms>  (523) 


>  <Gold.Id.Protein>  (523) 


>  <Gold.PLP.Chemscore.CHOScore>  (523) 
0.0000

>  <Gold.PLP.Chemscore.Hbond>  (523) 
2.8160

>  <Gold.PLP.Chemscore.Internal.Correction>  (523) 
0.4567

>  <Gold.PLP.Chemscore.Metal>  (523) 
0.0000

>  <Gold.PLP.Fitness>  (523) 
69.5823

>  <Gold.PLP.PLP>  (523) 
-61.9821

>  <Gold.PLP.ligand.clash>  (523) 
0.0000

>  <Gold.PLP.ligand.torsion>  (523) 
0.6523

>  <Gold.PLP.part.buried>  (523) 
-9.4327

>  <Gold.PLP.part.hbond>  (523) 
-6.4309

>  <Gold.PLP.part.metal>  (523) 
0.0000

>  <Gold.PLP.part.nonpolar>  (523) 
-47.1775

>  <Gold.PLP.part.repulsive>  (523) 
0.2657

>  <Gold.Protein.RotatedAtoms>  (523) 


>  <Gold.Protein.RotatedTorsions>  (523) 


>  <Gold.Protein.RotatedWaterAtoms>  (523) 


>  <Gold.Version>  (523) 
5.3.0

>  <PLP.Chemscore.CHOScore>  (523) 


>  <PLP.Chemscore.Hbond>  (523) 


>  <PLP.Chemscore.Internal.Correction>  (523) 


>  <PLP.Chemscore.Metal>  (523) 


>  <PLP.Fitness>  (523) 


>  <PLP.PLP>  (523) 


>  <PLP.ligand.clash>  (523) 


>  <PLP.ligand.torsion>  (523) 


>  <PLP.part.buried>  (523) 


>  <PLP.part.hbond>  (523) 


>  <PLP.part.metal>  (523) 


>  <PLP.part.nonpolar>  (523) 


>  <PLP.part.repulsive>  (523) 


>  <Version>  (523) 


$$$$
3523|Compound_2150|Compounds_3D_F|sdf|630|dock1|1
     RDKit          3D

 22 23  0  0  0  0  0  0  0  0999 V2000
   -7.4435  -16.1575   11.7599 N   0  0  0  0  0  0  0  0  0  0  0  0
   -8.7819  -16.3111   11.8070 C   0  0  0  0  0  0  0  0  0  0  0  0
   -9.4894  -15.3769   12.1283 O   0  0  0  0  0  0  0  0  0  0  0  0
   -9.3881  -17.6161   11.4676 C   0  0  0  0  0  0  0  0  0  0  0  0
  -10.6896  -17.9117   11.8759 C   0  0  0  0  0  0  0  0  0  0  0  0
  -11.2498  -19.1302   11.5556 C   0  0  0  0  0  0  0  0  0  0  0  0
  -10.5234  -20.0601   10.8321 C   0  0  0  0  0  0  0  0  0  0  0  0
   -9.2327  -19.7734   10.4241 C   0  0  0  0  0  0  0  0  0  0  0  0
   -8.6628  -18.5560   10.7329 C   0  0  0  0  0  0  0  0  0  0  0  0
   -8.4499  -20.7928    9.6369 C   0  0  0  0  0  0  0  0  0  0  0  0
   -8.3618  -22.0950   10.4346 C   0  0  0  0  0  0  0  0  0  0  0  0
   -9.1544  -21.0574    8.3041 C   0  0  0  0  0  0  0  0  0  0  0  0
   -7.0402  -20.2604    9.3723 C   0  0  0  0  0  0  0  0  0  0  0  0
  -12.6551  -19.4514   11.9959 C   0  0  0  0  0  0  0  0  0  0  0  0
  -13.4408  -20.0238   10.8150 C   0  0  0  0  0  0  0  0  0  0  0  0
  -12.6116  -20.4816   13.1260 C   0  0  0  0  0  0  0  0  0  0  0  0
  -13.3378  -18.1764   12.4940 C   0  0  0  0  0  0  0  0  0  0  0  0
   -6.8747  -14.9364   12.0826 C   0  0  0  0  0  0  0  0  0  0  0  0
   -7.5149  -13.7990   12.1881 N   0  0  0  0  0  0  0  0  0  0  0  0
   -6.6317  -12.8371   12.5142 C   0  0  0  0  0  0  0  0  0  0  0  0
   -5.4209  -13.4069   12.6082 C   0  0  0  0  0  0  0  0  0  0  0  0
   -5.5754  -14.7217   12.3442 O   0  0  0  0  0  0  0  0  0  0  0  0
  1  2  1  0
  1 18  1  0
  2  3  2  0
  2  4  1  0
  4  5  2  0
  4  9  1  0
  5  6  1  0
  6  7  2  0
  6 14  1  0
  7  8  1  0
  8  9  2  0
  8 10  1  0
 10 11  1  0
 10 12  1  0
 10 13  1  0
 14 15  1  0
 14 16  1  0
 14 17  1  0
 18 19  2  0
 18 22  1  0
 19 20  1  0
 20 21  2  0
 21 22  1  0
M  END
>  <Gold.Gold.Protein.RotatedWaterAtoms>  (524) 


>  <Gold.Id.Protein>  (524) 


>  <Gold.PLP.Chemscore.CHOScore>  (524) 
0.9889

>  <Gold.PLP.Chemscore.Hbond>  (524) 
0.7040

>  <Gold.PLP.Chemscore.Internal.Correction>  (524) 
2.3453

>  <Gold.PLP.Chemscore.Metal>  (524) 
0.0000

>  <Gold.PLP.Fitness>  (524) 
49.6813

>  <Gold.PLP.PLP>  (524) 
-45.3242

>  <Gold.PLP.ligand.clash>  (524) 
1.7890

>  <Gold.PLP.ligand.torsion>  (524) 
0.6390

>  <Gold.PLP.part.buried>  (524) 
-7.1708

>  <Gold.PLP.part.hbond>  (524) 
-1.0000

>  <Gold.PLP.part.metal>  (524) 
0.0000

>  <Gold.PLP.part.nonpolar>  (524) 
-38.6799

>  <Gold.PLP.part.repulsive>  (524) 
0.4481

>  <Gold.Protein.RotatedAtoms>  (524) 


>  <Gold.Protein.RotatedTorsions>  (524) 


>  <Gold.Protein.RotatedWaterAtoms>  (524) 


>  <Gold.Version>  (524) 
5.3.0

>  <PLP.Chemscore.CHOScore>  (524) 


>  <PLP.Chemscore.Hbond>  (524) 


>  <PLP.Chemscore.Internal.Correction>  (524) 


>  <PLP.Chemscore.Metal>  (524) 


>  <PLP.Fitness>  (524) 


>  <PLP.PLP>  (524) 


>  <PLP.ligand.clash>  (524) 


>  <PLP.ligand.torsion>  (524) 


>  <PLP.part.buried>  (524) 


>  <PLP.part.hbond>  (524) 


>  <PLP.part.metal>  (524) 


>  <PLP.part.nonpolar>  (524) 


>  <PLP.part.repulsive>  (524) 


>  <Version>  (524) 


$$$$
3524|Compound_2150|Compounds_3D_F|sdf|630|dock2|1
     RDKit          3D

 22 23  0  0  0  0  0  0  0  0999 V2000
   -9.5105  -16.5767   11.2845 N   0  0  0  0  0  0  0  0  0  0  0  0
   -9.2429  -17.8960   11.2136 C   0  0  0  0  0  0  0  0  0  0  0  0
   -8.0955  -18.2771   11.0917 O   0  0  0  0  0  0  0  0  0  0  0  0
  -10.3455  -18.8782   11.2843 C   0  0  0  0  0  0  0  0  0  0  0  0
  -10.2810  -19.9404   12.1874 C   0  0  0  0  0  0  0  0  0  0  0  0
  -11.3129  -20.8529   12.2493 C   0  0  0  0  0  0  0  0  0  0  0  0
  -12.4104  -20.7180   11.4168 C   0  0  0  0  0  0  0  0  0  0  0  0
  -12.4807  -19.6672   10.5192 C   0  0  0  0  0  0  0  0  0  0  0  0
  -11.4581  -18.7443   10.4514 C   0  0  0  0  0  0  0  0  0  0  0  0
  -13.6801  -19.5292    9.6168 C   0  0  0  0  0  0  0  0  0  0  0  0
  -14.9512  -19.8468   10.4060 C   0  0  0  0  0  0  0  0  0  0  0  0
  -13.7545  -18.0961    9.0845 C   0  0  0  0  0  0  0  0  0  0  0  0
  -13.5510  -20.5033    8.4441 C   0  0  0  0  0  0  0  0  0  0  0  0
  -11.2450  -22.0008   13.2236 C   0  0  0  0  0  0  0  0  0  0  0  0
  -11.2198  -21.4555   14.6525 C   0  0  0  0  0  0  0  0  0  0  0  0
  -12.4720  -22.8962   13.0419 C   0  0  0  0  0  0  0  0  0  0  0  0
   -9.9764  -22.8153   12.9650 C   0  0  0  0  0  0  0  0  0  0  0  0
   -8.4783  -15.6557   11.2134 C   0  0  0  0  0  0  0  0  0  0  0  0
   -8.5577  -14.3916   11.5453 N   0  0  0  0  0  0  0  0  0  0  0  0
   -7.3577  -13.8172   11.3407 C   0  0  0  0  0  0  0  0  0  0  0  0
   -6.5269  -14.7594   10.8700 C   0  0  0  0  0  0  0  0  0  0  0  0
   -7.2276  -15.9109   10.7969 O   0  0  0  0  0  0  0  0  0  0  0  0
  1  2  1  0
  1 18  1  0
  2  3  2  0
  2  4  1  0
  4  5  2  0
  4  9  1  0
  5  6  1  0
  6  7  2  0
  6 14  1  0
  7  8  1  0
  8  9  2  0
  8 10  1  0
 10 11  1  0
 10 12  1  0
 10 13  1  0
 14 15  1  0
 14 16  1  0
 14 17  1  0
 18 19  2  0
 18 22  1  0
 19 20  1  0
 20 21  2  0
 21 22  1  0
M  END
>  <Gold.Gold.Protein.RotatedWaterAtoms>  (525) 


>  <Gold.Id.Protein>  (525) 


>  <Gold.PLP.Chemscore.CHOScore>  (525) 
0.9536

>  <Gold.PLP.Chemscore.Hbond>  (525) 
1.0000

>  <Gold.PLP.Chemscore.Internal.Correction>  (525) 
2.3418

>  <Gold.PLP.Chemscore.Metal>  (525) 
0.0000

>  <Gold.PLP.Fitness>  (525) 
48.9717

>  <Gold.PLP.PLP>  (525) 
-45.4483

>  <Gold.PLP.ligand.clash>  (525) 
1.1446

>  <Gold.PLP.ligand.torsion>  (525) 
1.7673

>  <Gold.PLP.part.buried>  (525) 
-7.4845

>  <Gold.PLP.part.hbond>  (525) 
-1.0000

>  <Gold.PLP.part.metal>  (525) 
0.0000

>  <Gold.PLP.part.nonpolar>  (525) 
-39.0187

>  <Gold.PLP.part.repulsive>  (525) 
0.1935

>  <Gold.Protein.RotatedAtoms>  (525) 


>  <Gold.Protein.RotatedTorsions>  (525) 


>  <Gold.Protein.RotatedWaterAtoms>  (525) 


>  <Gold.Version>  (525) 
5.3.0

>  <PLP.Chemscore.CHOScore>  (525) 


>  <PLP.Chemscore.Hbond>  (525) 


>  <PLP.Chemscore.Internal.Correction>  (525) 


>  <PLP.Chemscore.Metal>  (525) 


>  <PLP.Fitness>  (525) 


>  <PLP.PLP>  (525) 


>  <PLP.ligand.clash>  (525) 


>  <PLP.ligand.torsion>  (525) 


>  <PLP.part.buried>  (525) 


>  <PLP.part.hbond>  (525) 


>  <PLP.part.metal>  (525) 


>  <PLP.part.nonpolar>  (525) 


>  <PLP.part.repulsive>  (525) 


>  <Version>  (525) 


$$$$
3525|Compound_2150|Compounds_3D_F|sdf|630|dock3|1
     RDKit          3D

 22 23  0  0  0  0  0  0  0  0999 V2000
   -7.5761  -16.1692   11.7780 N   0  0  0  0  0  0  0  0  0  0  0  0
   -8.9161  -16.2843   11.8683 C   0  0  0  0  0  0  0  0  0  0  0  0
   -9.5849  -15.3331   12.2212 O   0  0  0  0  0  0  0  0  0  0  0  0
   -9.5712  -17.5677   11.5376 C   0  0  0  0  0  0  0  0  0  0  0  0
  -10.9274  -17.7529   11.8103 C   0  0  0  0  0  0  0  0  0  0  0  0
  -11.5331  -18.9518   11.4987 C   0  0  0  0  0  0  0  0  0  0  0  0
  -10.7983  -19.9711   10.9184 C   0  0  0  0  0  0  0  0  0  0  0  0
   -9.4535  -19.7940   10.6452 C   0  0  0  0  0  0  0  0  0  0  0  0
   -8.8370  -18.5976   10.9464 C   0  0  0  0  0  0  0  0  0  0  0  0
   -8.6620  -20.9103   10.0132 C   0  0  0  0  0  0  0  0  0  0  0  0
   -7.1849  -20.5175    9.9536 C   0  0  0  0  0  0  0  0  0  0  0  0
   -8.8186  -22.1824   10.8497 C   0  0  0  0  0  0  0  0  0  0  0  0
   -9.1798  -21.1641    8.5961 C   0  0  0  0  0  0  0  0  0  0  0  0
  -12.9974  -19.1540   11.7928 C   0  0  0  0  0  0  0  0  0  0  0  0
  -13.1715  -20.3731   12.6999 C   0  0  0  0  0  0  0  0  0  0  0  0
  -13.5517  -17.9131   12.4954 C   0  0  0  0  0  0  0  0  0  0  0  0
  -13.7547  -19.3793   10.4830 C   0  0  0  0  0  0  0  0  0  0  0  0
   -6.9613  -14.9684   12.0924 C   0  0  0  0  0  0  0  0  0  0  0  0
   -7.5500  -13.8001   12.1489 N   0  0  0  0  0  0  0  0  0  0  0  0
   -6.6337  -12.8727   12.4840 C   0  0  0  0  0  0  0  0  0  0  0  0
   -5.4553  -13.4960   12.6339 C   0  0  0  0  0  0  0  0  0  0  0  0
   -5.6629  -14.8082   12.3950 O   0  0  0  0  0  0  0  0  0  0  0  0
  1  2  1  0
  1 18  1  0
  2  3  2  0
  2  4  1  0
  4  5  2  0
  4  9  1  0
  5  6  1  0
  6  7  2  0
  6 14  1  0
  7  8  1  0
  8  9  2  0
  8 10  1  0
 10 11  1  0
 10 12  1  0
 10 13  1  0
 14 15  1  0
 14 16  1  0
 14 17  1  0
 18 19  2  0
 18 22  1  0
 19 20  1  0
 20 21  2  0
 21 22  1  0
M  END
>  <Gold.Gold.Protein.RotatedWaterAtoms>  (526) 


>  <Gold.Id.Protein>  (526) 


>  <Gold.PLP.Chemscore.CHOScore>  (526) 
1.0000

>  <Gold.PLP.Chemscore.Hbond>  (526) 
0.7680

>  <Gold.PLP.Chemscore.Internal.Correction>  (526) 
2.3418

>  <Gold.PLP.Chemscore.Metal>  (526) 
0.0000

>  <Gold.PLP.Fitness>  (526) 
49.6814

>  <Gold.PLP.PLP>  (526) 
-44.7937

>  <Gold.PLP.ligand.clash>  (526) 
2.2598

>  <Gold.PLP.ligand.torsion>  (526) 
0.2491

>  <Gold.PLP.part.buried>  (526) 
-4.9920

>  <Gold.PLP.part.hbond>  (526) 
-1.0000

>  <Gold.PLP.part.metal>  (526) 
0.0000

>  <Gold.PLP.part.nonpolar>  (526) 
-39.0725

>  <Gold.PLP.part.repulsive>  (526) 
0.4446

>  <Gold.Protein.RotatedAtoms>  (526) 


>  <Gold.Protein.RotatedTorsions>  (526) 


>  <Gold.Protein.RotatedWaterAtoms>  (526) 


>  <Gold.Version>  (526) 
5.3.0

>  <PLP.Chemscore.CHOScore>  (526) 


>  <PLP.Chemscore.Hbond>  (526) 


>  <PLP.Chemscore.Internal.Correction>  (526) 


>  <PLP.Chemscore.Metal>  (526) 


>  <PLP.Fitness>  (526) 


>  <PLP.PLP>  (526) 


>  <PLP.ligand.clash>  (526) 


>  <PLP.ligand.torsion>  (526) 


>  <PLP.part.buried>  (526) 


>  <PLP.part.hbond>  (526) 


>  <PLP.part.metal>  (526) 


>  <PLP.part.nonpolar>  (526) 


>  <PLP.part.repulsive>  (526) 


>  <Version>  (526) 


$$$$
3526|Compound_2150|Compounds_3D_F|sdf|630|dock4|1
     RDKit          3D

 22 23  0  0  0  0  0  0  0  0999 V2000
   -6.9966  -13.1028   11.7607 N   0  0  0  0  0  0  0  0  0  0  0  0
   -7.9983  -13.9366   11.4165 C   0  0  0  0  0  0  0  0  0  0  0  0
   -9.1060  -13.4928   11.1871 O   0  0  0  0  0  0  0  0  0  0  0  0
   -7.7485  -15.3904   11.3180 C   0  0  0  0  0  0  0  0  0  0  0  0
   -8.8127  -16.2730   11.1269 C   0  0  0  0  0  0  0  0  0  0  0  0
   -8.5733  -17.6278   11.0349 C   0  0  0  0  0  0  0  0  0  0  0  0
   -7.2808  -18.1131   11.1337 C   0  0  0  0  0  0  0  0  0  0  0  0
   -6.2213  -17.2436   11.3231 C   0  0  0  0  0  0  0  0  0  0  0  0
   -6.4465  -15.8858   11.4108 C   0  0  0  0  0  0  0  0  0  0  0  0
   -4.8175  -17.7821   11.4295 C   0  0  0  0  0  0  0  0  0  0  0  0
   -4.7724  -19.2031   10.8652 C   0  0  0  0  0  0  0  0  0  0  0  0
   -3.8666  -16.8859   10.6325 C   0  0  0  0  0  0  0  0  0  0  0  0
   -4.3889  -17.8027   12.8981 C   0  0  0  0  0  0  0  0  0  0  0  0
   -9.7212  -18.5825   10.8288 C   0  0  0  0  0  0  0  0  0  0  0  0
  -10.7845  -18.3400   11.9013 C   0  0  0  0  0  0  0  0  0  0  0  0
  -10.3320  -18.3532    9.4451 C   0  0  0  0  0  0  0  0  0  0  0  0
   -9.2126  -20.0215   10.9297 C   0  0  0  0  0  0  0  0  0  0  0  0
   -7.2313  -11.7411   11.8579 C   0  0  0  0  0  0  0  0  0  0  0  0
   -6.4862  -10.8815   12.5064 N   0  0  0  0  0  0  0  0  0  0  0  0
   -7.0298   -9.6571   12.3760 C   0  0  0  0  0  0  0  0  0  0  0  0
   -8.1369   -9.7774   11.6280 C   0  0  0  0  0  0  0  0  0  0  0  0
   -8.2583  -11.0810   11.2991 O   0  0  0  0  0  0  0  0  0  0  0  0
  1  2  1  0
  1 18  1  0
  2  3  2  0
  2  4  1  0
  4  5  2  0
  4  9  1  0
  5  6  1  0
  6  7  2  0
  6 14  1  0
  7  8  1  0
  8  9  2  0
  8 10  1  0
 10 11  1  0
 10 12  1  0
 10 13  1  0
 14 15  1  0
 14 16  1  0
 14 17  1  0
 18 19  2  0
 18 22  1  0
 19 20  1  0
 20 21  2  0
 21 22  1  0
M  END
>  <Gold.Gold.Protein.RotatedWaterAtoms>  (527) 


>  <Gold.Id.Protein>  (527) 


>  <Gold.PLP.Chemscore.CHOScore>  (527) 
1.7076

>  <Gold.PLP.Chemscore.Hbond>  (527) 
0.1217

>  <Gold.PLP.Chemscore.Internal.Correction>  (527) 
2.2981

>  <Gold.PLP.Chemscore.Metal>  (527) 
0.0000

>  <Gold.PLP.Fitness>  (527) 
52.9140

>  <Gold.PLP.PLP>  (527) 
-48.1232

>  <Gold.PLP.ligand.clash>  (527) 
1.0399

>  <Gold.PLP.ligand.torsion>  (527) 
0.9776

>  <Gold.PLP.part.buried>  (527) 
-6.5417

>  <Gold.PLP.part.hbond>  (527) 
-1.3412

>  <Gold.PLP.part.metal>  (527) 
0.0000

>  <Gold.PLP.part.nonpolar>  (527) 
-43.1435

>  <Gold.PLP.part.repulsive>  (527) 
0.7476

>  <Gold.Protein.RotatedAtoms>  (527) 


>  <Gold.Protein.RotatedTorsions>  (527) 


>  <Gold.Protein.RotatedWaterAtoms>  (527) 


>  <Gold.Version>  (527) 
5.3.0

>  <PLP.Chemscore.CHOScore>  (527) 


>  <PLP.Chemscore.Hbond>  (527) 


>  <PLP.Chemscore.Internal.Correction>  (527) 


>  <PLP.Chemscore.Metal>  (527) 


>  <PLP.Fitness>  (527) 


>  <PLP.PLP>  (527) 


>  <PLP.ligand.clash>  (527) 


>  <PLP.ligand.torsion>  (527) 


>  <PLP.part.buried>  (527) 


>  <PLP.part.hbond>  (527) 


>  <PLP.part.metal>  (527) 


>  <PLP.part.nonpolar>  (527) 


>  <PLP.part.repulsive>  (527) 


>  <Version>  (527) 


$$$$
3527|Compound_2150|Compounds_3D_F|sdf|630|dock5|1
     RDKit          3D

 22 23  0  0  0  0  0  0  0  0999 V2000
   -7.5631  -16.3987   11.8385 N   0  0  0  0  0  0  0  0  0  0  0  0
   -8.9048  -16.5192   11.8883 C   0  0  0  0  0  0  0  0  0  0  0  0
   -9.5892  -15.5646   12.1997 O   0  0  0  0  0  0  0  0  0  0  0  0
   -9.5428  -17.8128   11.5639 C   0  0  0  0  0  0  0  0  0  0  0  0
   -8.7957  -18.8348   10.9761 C   0  0  0  0  0  0  0  0  0  0  0  0
   -9.3961  -20.0394   10.6766 C   0  0  0  0  0  0  0  0  0  0  0  0
  -10.7374  -20.2355   10.9561 C   0  0  0  0  0  0  0  0  0  0  0  0
  -11.4838  -19.2266   11.5388 C   0  0  0  0  0  0  0  0  0  0  0  0
  -10.8939  -18.0191   11.8488 C   0  0  0  0  0  0  0  0  0  0  0  0
  -12.9439  -19.4500   11.8391 C   0  0  0  0  0  0  0  0  0  0  0  0
  -13.6924  -19.7457   10.5383 C   0  0  0  0  0  0  0  0  0  0  0  0
  -13.0915  -20.6369   12.7941 C   0  0  0  0  0  0  0  0  0  0  0  0
  -13.5288  -18.1951   12.4902 C   0  0  0  0  0  0  0  0  0  0  0  0
   -8.5911  -21.1441   10.0416 C   0  0  0  0  0  0  0  0  0  0  0  0
   -8.6005  -22.3711   10.9547 C   0  0  0  0  0  0  0  0  0  0  0  0
   -9.2068  -21.5104    8.6898 C   0  0  0  0  0  0  0  0  0  0  0  0
   -7.1509  -20.6721    9.8348 C   0  0  0  0  0  0  0  0  0  0  0  0
   -6.9646  -15.1882   12.1472 C   0  0  0  0  0  0  0  0  0  0  0  0
   -5.7066  -15.0175   12.4681 N   0  0  0  0  0  0  0  0  0  0  0  0
   -5.4958  -13.7084   12.6994 C   0  0  0  0  0  0  0  0  0  0  0  0
   -6.6593  -13.0667   12.5148 C   0  0  0  0  0  0  0  0  0  0  0  0
   -7.5760  -13.9929   12.1630 O   0  0  0  0  0  0  0  0  0  0  0  0
  1  2  1  0
  1 18  1  0
  2  3  2  0
  2  4  1  0
  4  5  2  0
  4  9  1  0
  5  6  1  0
  6  7  2  0
  6 14  1  0
  7  8  1  0
  8  9  2  0
  8 10  1  0
 10 11  1  0
 10 12  1  0
 10 13  1  0
 14 15  1  0
 14 16  1  0
 14 17  1  0
 18 19  2  0
 18 22  1  0
 19 20  1  0
 20 21  2  0
 21 22  1  0
M  END
>  <Gold.Gold.Protein.RotatedWaterAtoms>  (528) 


>  <Gold.Id.Protein>  (528) 


>  <Gold.PLP.Chemscore.CHOScore>  (528) 
1.0000

>  <Gold.PLP.Chemscore.Hbond>  (528) 
0.7840

>  <Gold.PLP.Chemscore.Internal.Correction>  (528) 
2.2981

>  <Gold.PLP.Chemscore.Metal>  (528) 
0.0000

>  <Gold.PLP.Fitness>  (528) 
49.8278

>  <Gold.PLP.PLP>  (528) 
-44.8156

>  <Gold.PLP.ligand.clash>  (528) 
2.3580

>  <Gold.PLP.ligand.torsion>  (528) 
0.1400

>  <Gold.PLP.part.buried>  (528) 
-6.3757

>  <Gold.PLP.part.hbond>  (528) 
-1.0000

>  <Gold.PLP.part.metal>  (528) 
0.0000

>  <Gold.PLP.part.nonpolar>  (528) 
-38.4871

>  <Gold.PLP.part.repulsive>  (528) 
0.4310

>  <Gold.Protein.RotatedAtoms>  (528) 


>  <Gold.Protein.RotatedTorsions>  (528) 


>  <Gold.Protein.RotatedWaterAtoms>  (528) 


>  <Gold.Version>  (528) 
5.3.0

>  <PLP.Chemscore.CHOScore>  (528) 


>  <PLP.Chemscore.Hbond>  (528) 


>  <PLP.Chemscore.Internal.Correction>  (528) 


>  <PLP.Chemscore.Metal>  (528) 


>  <PLP.Fitness>  (528) 


>  <PLP.PLP>  (528) 


>  <PLP.ligand.clash>  (528) 


>  <PLP.ligand.torsion>  (528) 


>  <PLP.part.buried>  (528) 


>  <PLP.part.hbond>  (528) 


>  <PLP.part.metal>  (528) 


>  <PLP.part.nonpolar>  (528) 


>  <PLP.part.repulsive>  (528) 


>  <Version>  (528) 


$$$$
3528|Compound_2150|Compounds_3D_F|sdf|630|dock6|1
     RDKit          3D

 22 23  0  0  0  0  0  0  0  0999 V2000
   -7.4965  -16.1946   11.6168 N   0  0  0  0  0  0  0  0  0  0  0  0
   -8.8258  -16.3710   11.7547 C   0  0  0  0  0  0  0  0  0  0  0  0
   -9.5156  -15.4715   12.1924 O   0  0  0  0  0  0  0  0  0  0  0  0
   -9.4436  -17.6587   11.3730 C   0  0  0  0  0  0  0  0  0  0  0  0
  -10.7594  -17.9416   11.7425 C   0  0  0  0  0  0  0  0  0  0  0  0
  -11.3305  -19.1440   11.3828 C   0  0  0  0  0  0  0  0  0  0  0  0
  -10.6007  -20.0704   10.6583 C   0  0  0  0  0  0  0  0  0  0  0  0
   -9.2958  -19.7963   10.2886 C   0  0  0  0  0  0  0  0  0  0  0  0
   -8.7149  -18.5949   10.6369 C   0  0  0  0  0  0  0  0  0  0  0  0
   -8.5095  -20.8118    9.4998 C   0  0  0  0  0  0  0  0  0  0  0  0
   -9.1826  -21.0372    8.1449 C   0  0  0  0  0  0  0  0  0  0  0  0
   -7.0850  -20.2958    9.2826 C   0  0  0  0  0  0  0  0  0  0  0  0
   -8.4620  -22.1320   10.2716 C   0  0  0  0  0  0  0  0  0  0  0  0
  -12.7512  -19.4514   11.7812 C   0  0  0  0  0  0  0  0  0  0  0  0
  -13.3596  -18.2338   12.4791 C   0  0  0  0  0  0  0  0  0  0  0  0
  -13.5696  -19.7842   10.5323 C   0  0  0  0  0  0  0  0  0  0  0  0
  -12.7665  -20.6474   12.7347 C   0  0  0  0  0  0  0  0  0  0  0  0
   -6.9165  -14.9899   11.9789 C   0  0  0  0  0  0  0  0  0  0  0  0
   -7.5508  -13.8575   12.1516 N   0  0  0  0  0  0  0  0  0  0  0  0
   -6.6570  -12.9124   12.4974 C   0  0  0  0  0  0  0  0  0  0  0  0
   -5.4456  -13.4875   12.5344 C   0  0  0  0  0  0  0  0  0  0  0  0
   -5.6102  -14.7890   12.2161 O   0  0  0  0  0  0  0  0  0  0  0  0
  1  2  1  0
  1 18  1  0
  2  3  2  0
  2  4  1  0
  4  5  2  0
  4  9  1  0
  5  6  1  0
  6  7  2  0
  6 14  1  0
  7  8  1  0
  8  9  2  0
  8 10  1  0
 10 11  1  0
 10 12  1  0
 10 13  1  0
 14 15  1  0
 14 16  1  0
 14 17  1  0
 18 19  2  0
 18 22  1  0
 19 20  1  0
 20 21  2  0
 21 22  1  0
M  END
>  <Gold.Gold.Protein.RotatedWaterAtoms>  (529) 


>  <Gold.Id.Protein>  (529) 


>  <Gold.PLP.Chemscore.CHOScore>  (529) 
1.0000

>  <Gold.PLP.Chemscore.Hbond>  (529) 
0.7680

>  <Gold.PLP.Chemscore.Internal.Correction>  (529) 
2.2981

>  <Gold.PLP.Chemscore.Metal>  (529) 
0.0000

>  <Gold.PLP.Fitness>  (529) 
48.7426

>  <Gold.PLP.PLP>  (529) 
-43.8938

>  <Gold.PLP.ligand.clash>  (529) 
2.3326

>  <Gold.PLP.ligand.torsion>  (529) 
0.2104

>  <Gold.PLP.part.buried>  (529) 
-6.7572

>  <Gold.PLP.part.hbond>  (529) 
-1.0000

>  <Gold.PLP.part.metal>  (529) 
0.0000

>  <Gold.PLP.part.nonpolar>  (529) 
-37.1285

>  <Gold.PLP.part.repulsive>  (529) 
0.4259

>  <Gold.Protein.RotatedAtoms>  (529) 


>  <Gold.Protein.RotatedTorsions>  (529) 


>  <Gold.Protein.RotatedWaterAtoms>  (529) 


>  <Gold.Version>  (529) 
5.3.0

>  <PLP.Chemscore.CHOScore>  (529) 


>  <PLP.Chemscore.Hbond>  (529) 


>  <PLP.Chemscore.Internal.Correction>  (529) 


>  <PLP.Chemscore.Metal>  (529) 


>  <PLP.Fitness>  (529) 


>  <PLP.PLP>  (529) 


>  <PLP.ligand.clash>  (529) 


>  <PLP.ligand.torsion>  (529) 


>  <PLP.part.buried>  (529) 


>  <PLP.part.hbond>  (529) 


>  <PLP.part.metal>  (529) 


>  <PLP.part.nonpolar>  (529) 


>  <PLP.part.repulsive>  (529) 


>  <Version>  (529) 


$$$$
3529|Compound_2150|Compounds_3D_F|sdf|630|dock7|1
     RDKit          3D

 22 23  0  0  0  0  0  0  0  0999 V2000
   -9.8200  -16.2984   11.5315 N   0  0  0  0  0  0  0  0  0  0  0  0
   -9.4692  -17.5942   11.4094 C   0  0  0  0  0  0  0  0  0  0  0  0
   -8.2968  -17.8998   11.3165 O   0  0  0  0  0  0  0  0  0  0  0  0
  -10.5112  -18.6428   11.3889 C   0  0  0  0  0  0  0  0  0  0  0  0
  -10.3874  -19.7699   12.2027 C   0  0  0  0  0  0  0  0  0  0  0  0
  -11.3629  -20.7440   12.1798 C   0  0  0  0  0  0  0  0  0  0  0  0
  -12.4625  -20.6066   11.3505 C   0  0  0  0  0  0  0  0  0  0  0  0
  -12.5915  -19.4917   10.5412 C   0  0  0  0  0  0  0  0  0  0  0  0
  -11.6258  -18.5073   10.5590 C   0  0  0  0  0  0  0  0  0  0  0  0
  -13.7926  -19.3516    9.6415 C   0  0  0  0  0  0  0  0  0  0  0  0
  -13.6505  -20.3003    8.4501 C   0  0  0  0  0  0  0  0  0  0  0  0
  -15.0596  -19.7025   10.4252 C   0  0  0  0  0  0  0  0  0  0  0  0
  -13.8870  -17.9102    9.1372 C   0  0  0  0  0  0  0  0  0  0  0  0
  -11.2309  -21.9620   13.0577 C   0  0  0  0  0  0  0  0  0  0  0  0
  -12.4233  -22.8909   12.8233 C   0  0  0  0  0  0  0  0  0  0  0  0
   -9.9355  -22.6996   12.7137 C   0  0  0  0  0  0  0  0  0  0  0  0
  -11.1987  -21.5323   14.5254 C   0  0  0  0  0  0  0  0  0  0  0  0
   -8.8444  -15.3152   11.5458 C   0  0  0  0  0  0  0  0  0  0  0  0
   -7.5514  -15.5210   11.5254 N   0  0  0  0  0  0  0  0  0  0  0  0
   -6.9259  -14.3294   11.5498 C   0  0  0  0  0  0  0  0  0  0  0  0
   -7.8662  -13.3734   11.5874 C   0  0  0  0  0  0  0  0  0  0  0  0
   -9.0662  -13.9913   11.5783 O   0  0  0  0  0  0  0  0  0  0  0  0
  1  2  1  0
  1 18  1  0
  2  3  2  0
  2  4  1  0
  4  5  2  0
  4  9  1  0
  5  6  1  0
  6  7  2  0
  6 14  1  0
  7  8  1  0
  8  9  2  0
  8 10  1  0
 10 11  1  0
 10 12  1  0
 10 13  1  0
 14 15  1  0
 14 16  1  0
 14 17  1  0
 18 19  2  0
 18 22  1  0
 19 20  1  0
 20 21  2  0
 21 22  1  0
M  END
>  <Gold.Gold.Protein.RotatedWaterAtoms>  (530) 


>  <Gold.Id.Protein>  (530) 


>  <Gold.PLP.Chemscore.CHOScore>  (530) 
0.0000

>  <Gold.PLP.Chemscore.Hbond>  (530) 
0.8089

>  <Gold.PLP.Chemscore.Internal.Correction>  (530) 
2.2981

>  <Gold.PLP.Chemscore.Metal>  (530) 
0.0000

>  <Gold.PLP.Fitness>  (530) 
48.1036

>  <Gold.PLP.PLP>  (530) 
-47.7520

>  <Gold.PLP.ligand.clash>  (530) 
1.6228

>  <Gold.PLP.ligand.torsion>  (530) 
1.3751

>  <Gold.PLP.part.buried>  (530) 
-5.4681

>  <Gold.PLP.part.hbond>  (530) 
-1.3640

>  <Gold.PLP.part.metal>  (530) 
0.0000

>  <Gold.PLP.part.nonpolar>  (530) 
-40.9191

>  <Gold.PLP.part.repulsive>  (530) 
0.2713

>  <Gold.Protein.RotatedAtoms>  (530) 


>  <Gold.Protein.RotatedTorsions>  (530) 


>  <Gold.Protein.RotatedWaterAtoms>  (530) 


>  <Gold.Version>  (530) 
5.3.0

>  <PLP.Chemscore.CHOScore>  (530) 


>  <PLP.Chemscore.Hbond>  (530) 


>  <PLP.Chemscore.Internal.Correction>  (530) 


>  <PLP.Chemscore.Metal>  (530) 


>  <PLP.Fitness>  (530) 


>  <PLP.PLP>  (530) 


>  <PLP.ligand.clash>  (530) 


>  <PLP.ligand.torsion>  (530) 


>  <PLP.part.buried>  (530) 


>  <PLP.part.hbond>  (530) 


>  <PLP.part.metal>  (530) 


>  <PLP.part.nonpolar>  (530) 


>  <PLP.part.repulsive>  (530) 


>  <Version>  (530) 


$$$$
3530|Compound_2150|Compounds_3D_F|sdf|630|dock8|1
     RDKit          3D

 22 23  0  0  0  0  0  0  0  0999 V2000
   -6.9515  -13.0006   11.6877 N   0  0  0  0  0  0  0  0  0  0  0  0
   -7.9555  -13.8428   11.3719 C   0  0  0  0  0  0  0  0  0  0  0  0
   -9.0776  -13.4111   11.1957 O   0  0  0  0  0  0  0  0  0  0  0  0
   -7.6907  -15.2913   11.2399 C   0  0  0  0  0  0  0  0  0  0  0  0
   -6.3789  -15.7678   11.2511 C   0  0  0  0  0  0  0  0  0  0  0  0
   -6.1383  -17.1200   11.1286 C   0  0  0  0  0  0  0  0  0  0  0  0
   -7.1946  -18.0040   10.9927 C   0  0  0  0  0  0  0  0  0  0  0  0
   -8.4975  -17.5383   10.9810 C   0  0  0  0  0  0  0  0  0  0  0  0
   -8.7521  -16.1888   11.1087 C   0  0  0  0  0  0  0  0  0  0  0  0
   -9.6409  -18.5091   10.8323 C   0  0  0  0  0  0  0  0  0  0  0  0
  -10.6967  -18.2206   11.9008 C   0  0  0  0  0  0  0  0  0  0  0  0
  -10.2643  -18.3527    9.4433 C   0  0  0  0  0  0  0  0  0  0  0  0
   -9.1219  -19.9384   11.0009 C   0  0  0  0  0  0  0  0  0  0  0  0
   -4.7224  -17.6364   11.1401 C   0  0  0  0  0  0  0  0  0  0  0  0
   -3.9239  -16.9595   10.0249 C   0  0  0  0  0  0  0  0  0  0  0  0
   -4.0769  -17.3226   12.4912 C   0  0  0  0  0  0  0  0  0  0  0  0
   -4.7293  -19.1498   10.9175 C   0  0  0  0  0  0  0  0  0  0  0  0
   -7.2000  -11.6440   11.8163 C   0  0  0  0  0  0  0  0  0  0  0  0
   -8.2174  -11.0011   11.3004 N   0  0  0  0  0  0  0  0  0  0  0  0
   -8.1206   -9.7016   11.6376 C   0  0  0  0  0  0  0  0  0  0  0  0
   -7.0123   -9.5516   12.3784 C   0  0  0  0  0  0  0  0  0  0  0  0
   -6.4406  -10.7689   12.4948 O   0  0  0  0  0  0  0  0  0  0  0  0
  1  2  1  0
  1 18  1  0
  2  3  2  0
  2  4  1  0
  4  5  2  0
  4  9  1  0
  5  6  1  0
  6  7  2  0
  6 14  1  0
  7  8  1  0
  8  9  2  0
  8 10  1  0
 10 11  1  0
 10 12  1  0
 10 13  1  0
 14 15  1  0
 14 16  1  0
 14 17  1  0
 18 19  2  0
 18 22  1  0
 19 20  1  0
 20 21  2  0
 21 22  1  0
M  END
>  <Gold.Gold.Protein.RotatedWaterAtoms>  (531) 


>  <Gold.Id.Protein>  (531) 


>  <Gold.PLP.Chemscore.CHOScore>  (531) 
1.6864

>  <Gold.PLP.Chemscore.Hbond>  (531) 
0.0000

>  <Gold.PLP.Chemscore.Internal.Correction>  (531) 
2.2981

>  <Gold.PLP.Chemscore.Metal>  (531) 
0.0000

>  <Gold.PLP.Fitness>  (531) 
52.0878

>  <Gold.PLP.PLP>  (531) 
-47.5771

>  <Gold.PLP.ligand.clash>  (531) 
1.8007

>  <Gold.PLP.ligand.torsion>  (531) 
0.5230

>  <Gold.PLP.part.buried>  (531) 
-6.3997

>  <Gold.PLP.part.hbond>  (531) 
-1.0767

>  <Gold.PLP.part.metal>  (531) 
0.0000

>  <Gold.PLP.part.nonpolar>  (531) 
-42.5536

>  <Gold.PLP.part.repulsive>  (531) 
0.7672

>  <Gold.Protein.RotatedAtoms>  (531) 


>  <Gold.Protein.RotatedTorsions>  (531) 


>  <Gold.Protein.RotatedWaterAtoms>  (531) 


>  <Gold.Version>  (531) 
5.3.0

>  <PLP.Chemscore.CHOScore>  (531) 


>  <PLP.Chemscore.Hbond>  (531) 


>  <PLP.Chemscore.Internal.Correction>  (531) 


>  <PLP.Chemscore.Metal>  (531) 


>  <PLP.Fitness>  (531) 


>  <PLP.PLP>  (531) 


>  <PLP.ligand.clash>  (531) 


>  <PLP.ligand.torsion>  (531) 


>  <PLP.part.buried>  (531) 


>  <PLP.part.hbond>  (531) 


>  <PLP.part.metal>  (531) 


>  <PLP.part.nonpolar>  (531) 


>  <PLP.part.repulsive>  (531) 


>  <Version>  (531) 


$$$$
3531|Compound_2150|Compounds_3D_F|sdf|630|dock9|1
     RDKit          3D

 22 23  0  0  0  0  0  0  0  0999 V2000
   -7.6768  -16.6929   11.2279 N   0  0  0  0  0  0  0  0  0  0  0  0
   -9.0018  -16.8789   11.3918 C   0  0  0  0  0  0  0  0  0  0  0  0
   -9.6566  -16.0665   12.0146 O   0  0  0  0  0  0  0  0  0  0  0  0
   -9.6575  -18.0710   10.8135 C   0  0  0  0  0  0  0  0  0  0  0  0
  -11.0389  -18.0838   10.6146 C   0  0  0  0  0  0  0  0  0  0  0  0
  -11.6446  -19.1983   10.0740 C   0  0  0  0  0  0  0  0  0  0  0  0
  -10.8857  -20.3036    9.7305 C   0  0  0  0  0  0  0  0  0  0  0  0
   -9.5157  -20.2975    9.9250 C   0  0  0  0  0  0  0  0  0  0  0  0
   -8.8968  -19.1869   10.4593 C   0  0  0  0  0  0  0  0  0  0  0  0
   -8.6981  -21.5063    9.5479 C   0  0  0  0  0  0  0  0  0  0  0  0
   -7.2172  -21.2193    9.8012 C   0  0  0  0  0  0  0  0  0  0  0  0
   -9.1383  -22.7030   10.3945 C   0  0  0  0  0  0  0  0  0  0  0  0
   -8.9100  -21.8237    8.0663 C   0  0  0  0  0  0  0  0  0  0  0  0
  -13.1363  -19.2142    9.8587 C   0  0  0  0  0  0  0  0  0  0  0  0
  -13.5079  -20.3889    8.9523 C   0  0  0  0  0  0  0  0  0  0  0  0
  -13.8436  -19.3673   11.2065 C   0  0  0  0  0  0  0  0  0  0  0  0
  -13.5709  -17.9035    9.2006 C   0  0  0  0  0  0  0  0  0  0  0  0
   -7.0610  -15.5786   11.7738 C   0  0  0  0  0  0  0  0  0  0  0  0
   -7.6683  -14.4922   12.1806 N   0  0  0  0  0  0  0  0  0  0  0  0
   -6.7441  -13.6323   12.6477 C   0  0  0  0  0  0  0  0  0  0  0  0
   -5.5417  -14.2132   12.5197 C   0  0  0  0  0  0  0  0  0  0  0  0
   -5.7420  -15.4335   11.9787 O   0  0  0  0  0  0  0  0  0  0  0  0
  1  2  1  0
  1 18  1  0
  2  3  2  0
  2  4  1  0
  4  5  2  0
  4  9  1  0
  5  6  1  0
  6  7  2  0
  6 14  1  0
  7  8  1  0
  8  9  2  0
  8 10  1  0
 10 11  1  0
 10 12  1  0
 10 13  1  0
 14 15  1  0
 14 16  1  0
 14 17  1  0
 18 19  2  0
 18 22  1  0
 19 20  1  0
 20 21  2  0
 21 22  1  0
M  END
>  <Gold.Gold.Protein.RotatedWaterAtoms>  (532) 


>  <Gold.Id.Protein>  (532) 


>  <Gold.PLP.Chemscore.CHOScore>  (532) 
1.0000

>  <Gold.PLP.Chemscore.Hbond>  (532) 
0.7520

>  <Gold.PLP.Chemscore.Internal.Correction>  (532) 
2.2981

>  <Gold.PLP.Chemscore.Metal>  (532) 
0.0000

>  <Gold.PLP.Fitness>  (532) 
47.0419

>  <Gold.PLP.PLP>  (532) 
-42.6552

>  <Gold.PLP.ligand.clash>  (532) 
1.6615

>  <Gold.PLP.ligand.torsion>  (532) 
0.7529

>  <Gold.PLP.part.buried>  (532) 
-5.5727

>  <Gold.PLP.part.hbond>  (532) 
-1.0000

>  <Gold.PLP.part.metal>  (532) 
0.0000

>  <Gold.PLP.part.nonpolar>  (532) 
-37.1837

>  <Gold.PLP.part.repulsive>  (532) 
0.3185

>  <Gold.Protein.RotatedAtoms>  (532) 


>  <Gold.Protein.RotatedTorsions>  (532) 


>  <Gold.Protein.RotatedWaterAtoms>  (532) 


>  <Gold.Version>  (532) 
5.3.0

>  <PLP.Chemscore.CHOScore>  (532) 


>  <PLP.Chemscore.Hbond>  (532) 


>  <PLP.Chemscore.Internal.Correction>  (532) 


>  <PLP.Chemscore.Metal>  (532) 


>  <PLP.Fitness>  (532) 


>  <PLP.PLP>  (532) 


>  <PLP.ligand.clash>  (532) 


>  <PLP.ligand.torsion>  (532) 


>  <PLP.part.buried>  (532) 


>  <PLP.part.hbond>  (532) 


>  <PLP.part.metal>  (532) 


>  <PLP.part.nonpolar>  (532) 


>  <PLP.part.repulsive>  (532) 


>  <Version>  (532) 


$$$$
3532|Compound_2153|Compounds_3D_F|sdf|631|dock1|1
     RDKit          3D

 22 23  0  0  0  0  0  0  0  0999 V2000
   -9.5552  -16.4006   11.3007 N   0  0  0  0  0  0  0  0  0  0  0  0
   -9.3021  -17.7246   11.2888 C   0  0  0  0  0  0  0  0  0  0  0  0
   -8.1562  -18.1233   11.2219 O   0  0  0  0  0  0  0  0  0  0  0  0
  -10.4190  -18.6907   11.3574 C   0  0  0  0  0  0  0  0  0  0  0  0
  -10.3842  -19.7379   12.2795 C   0  0  0  0  0  0  0  0  0  0  0  0
  -11.4288  -20.6360   12.3387 C   0  0  0  0  0  0  0  0  0  0  0  0
  -12.5107  -20.5017   11.4858 C   0  0  0  0  0  0  0  0  0  0  0  0
  -12.5516  -19.4657   10.5694 C   0  0  0  0  0  0  0  0  0  0  0  0
  -11.5155  -18.5564   10.5036 C   0  0  0  0  0  0  0  0  0  0  0  0
  -13.7332  -19.3265    9.6440 C   0  0  0  0  0  0  0  0  0  0  0  0
  -15.0221  -19.6160   10.4167 C   0  0  0  0  0  0  0  0  0  0  0  0
  -13.7809  -17.9022    9.0884 C   0  0  0  0  0  0  0  0  0  0  0  0
  -13.5966  -20.3202    8.4899 C   0  0  0  0  0  0  0  0  0  0  0  0
  -11.3929  -21.7677   13.3334 C   0  0  0  0  0  0  0  0  0  0  0  0
  -10.0774  -22.5340   13.1862 C   0  0  0  0  0  0  0  0  0  0  0  0
  -11.4977  -21.2033   14.7521 C   0  0  0  0  0  0  0  0  0  0  0  0
  -12.5673  -22.7138   13.0728 C   0  0  0  0  0  0  0  0  0  0  0  0
   -8.5000  -15.4866   11.2307 C   0  0  0  0  0  0  0  0  0  0  0  0
   -8.5554  -14.2269   11.5918 N   0  0  0  0  0  0  0  0  0  0  0  0
   -7.2826  -13.6812   11.3553 N   0  0  0  0  0  0  0  0  0  0  0  0
   -6.5293  -14.6759   10.8541 C   0  0  0  0  0  0  0  0  0  0  0  0
   -7.2672  -15.7537   10.7894 N   0  0  0  0  0  0  0  0  0  0  0  0
  1  2  1  0
  1 18  1  0
  2  3  2  0
  2  4  1  0
  4  5  2  0
  4  9  1  0
  5  6  1  0
  6  7  2  0
  6 14  1  0
  7  8  1  0
  8  9  2  0
  8 10  1  0
 10 11  1  0
 10 12  1  0
 10 13  1  0
 14 15  1  0
 14 16  1  0
 14 17  1  0
 18 19  2  0
 18 22  1  0
 19 20  1  0
 20 21  1  0
 21 22  2  0
M  END
>  <Gold.Gold.Protein.RotatedWaterAtoms>  (533) 


>  <Gold.Id.Protein>  (533) 


>  <Gold.PLP.Chemscore.CHOScore>  (533) 
0.9962

>  <Gold.PLP.Chemscore.Hbond>  (533) 
1.0000

>  <Gold.PLP.Chemscore.Internal.Correction>  (533) 
2.3267

>  <Gold.PLP.Chemscore.Metal>  (533) 
0.0000

>  <Gold.PLP.Fitness>  (533) 
46.5389

>  <Gold.PLP.PLP>  (533) 
-42.9896

>  <Gold.PLP.ligand.clash>  (533) 
0.9729

>  <Gold.PLP.ligand.torsion>  (533) 
1.8964

>  <Gold.PLP.part.buried>  (533) 
-6.8008

>  <Gold.PLP.part.hbond>  (533) 
-1.0000

>  <Gold.PLP.part.metal>  (533) 
0.0000

>  <Gold.PLP.part.nonpolar>  (533) 
-36.7307

>  <Gold.PLP.part.repulsive>  (533) 
0.3305

>  <Gold.Protein.RotatedAtoms>  (533) 


>  <Gold.Protein.RotatedTorsions>  (533) 


>  <Gold.Protein.RotatedWaterAtoms>  (533) 


>  <Gold.Version>  (533) 
5.3.0

>  <PLP.Chemscore.CHOScore>  (533) 


>  <PLP.Chemscore.Hbond>  (533) 


>  <PLP.Chemscore.Internal.Correction>  (533) 


>  <PLP.Chemscore.Metal>  (533) 


>  <PLP.Fitness>  (533) 


>  <PLP.PLP>  (533) 


>  <PLP.ligand.clash>  (533) 


>  <PLP.ligand.torsion>  (533) 


>  <PLP.part.buried>  (533) 


>  <PLP.part.hbond>  (533) 


>  <PLP.part.metal>  (533) 


>  <PLP.part.nonpolar>  (533) 


>  <PLP.part.repulsive>  (533) 


>  <Version>  (533) 


$$$$
3533|Compound_2153|Compounds_3D_F|sdf|631|dock2|1
     RDKit          3D

 22 23  0  0  0  0  0  0  0  0999 V2000
   -8.0041  -17.8746   11.3105 N   0  0  0  0  0  0  0  0  0  0  0  0
   -9.3256  -17.6170   11.3766 C   0  0  0  0  0  0  0  0  0  0  0  0
   -9.7153  -16.4750   11.5202 O   0  0  0  0  0  0  0  0  0  0  0  0
  -10.3001  -18.7240   11.2742 C   0  0  0  0  0  0  0  0  0  0  0  0
  -10.0418  -19.9451   11.8988 C   0  0  0  0  0  0  0  0  0  0  0  0
  -10.9544  -20.9739   11.7996 C   0  0  0  0  0  0  0  0  0  0  0  0
  -12.1248  -20.7987   11.0818 C   0  0  0  0  0  0  0  0  0  0  0  0
  -12.3872  -19.5906   10.4602 C   0  0  0  0  0  0  0  0  0  0  0  0
  -11.4851  -18.5507   10.5564 C   0  0  0  0  0  0  0  0  0  0  0  0
  -13.6639  -19.4079    9.6803 C   0  0  0  0  0  0  0  0  0  0  0  0
  -13.6651  -20.3530    8.4766 C   0  0  0  0  0  0  0  0  0  0  0  0
  -14.8605  -19.7254   10.5787 C   0  0  0  0  0  0  0  0  0  0  0  0
  -13.7612  -17.9617    9.1931 C   0  0  0  0  0  0  0  0  0  0  0  0
  -10.6771  -22.2934   12.4732 C   0  0  0  0  0  0  0  0  0  0  0  0
  -10.5003  -22.0711   13.9761 C   0  0  0  0  0  0  0  0  0  0  0  0
  -11.8515  -23.2451   12.2336 C   0  0  0  0  0  0  0  0  0  0  0  0
   -9.3993  -22.9040   11.8931 C   0  0  0  0  0  0  0  0  0  0  0  0
   -7.0822  -16.8291   11.4123 C   0  0  0  0  0  0  0  0  0  0  0  0
   -6.2206  -16.4776   10.4879 N   0  0  0  0  0  0  0  0  0  0  0  0
   -5.4959  -15.3894   11.0021 N   0  0  0  0  0  0  0  0  0  0  0  0
   -5.9833  -15.1553   12.2332 C   0  0  0  0  0  0  0  0  0  0  0  0
   -6.9367  -16.0198   12.4659 N   0  0  0  0  0  0  0  0  0  0  0  0
  1  2  1  0
  1 18  1  0
  2  3  2  0
  2  4  1  0
  4  5  2  0
  4  9  1  0
  5  6  1  0
  6  7  2  0
  6 14  1  0
  7  8  1  0
  8  9  2  0
  8 10  1  0
 10 11  1  0
 10 12  1  0
 10 13  1  0
 14 15  1  0
 14 16  1  0
 14 17  1  0
 18 19  2  0
 18 22  1  0
 19 20  1  0
 20 21  1  0
 21 22  2  0
M  END
>  <Gold.Gold.Protein.RotatedWaterAtoms>  (534) 


>  <Gold.Id.Protein>  (534) 


>  <Gold.PLP.Chemscore.CHOScore>  (534) 
0.0000

>  <Gold.PLP.Chemscore.Hbond>  (534) 
1.6400

>  <Gold.PLP.Chemscore.Internal.Correction>  (534) 
2.3201

>  <Gold.PLP.Chemscore.Metal>  (534) 
0.0000

>  <Gold.PLP.Fitness>  (534) 
45.4432

>  <Gold.PLP.PLP>  (534) 
-43.0256

>  <Gold.PLP.ligand.clash>  (534) 
2.3295

>  <Gold.PLP.ligand.torsion>  (534) 
1.2466

>  <Gold.PLP.part.buried>  (534) 
-5.9880

>  <Gold.PLP.part.hbond>  (534) 
-1.9953

>  <Gold.PLP.part.metal>  (534) 
0.0000

>  <Gold.PLP.part.nonpolar>  (534) 
-36.0713

>  <Gold.PLP.part.repulsive>  (534) 
0.2758

>  <Gold.Protein.RotatedAtoms>  (534) 


>  <Gold.Protein.RotatedTorsions>  (534) 


>  <Gold.Protein.RotatedWaterAtoms>  (534) 


>  <Gold.Version>  (534) 
5.3.0

>  <PLP.Chemscore.CHOScore>  (534) 


>  <PLP.Chemscore.Hbond>  (534) 


>  <PLP.Chemscore.Internal.Correction>  (534) 


>  <PLP.Chemscore.Metal>  (534) 


>  <PLP.Fitness>  (534) 


>  <PLP.PLP>  (534) 


>  <PLP.ligand.clash>  (534) 


>  <PLP.ligand.torsion>  (534) 


>  <PLP.part.buried>  (534) 


>  <PLP.part.hbond>  (534) 


>  <PLP.part.metal>  (534) 


>  <PLP.part.nonpolar>  (534) 


>  <PLP.part.repulsive>  (534) 


>  <Version>  (534) 


$$$$
3534|Compound_2153|Compounds_3D_F|sdf|631|dock3|1
     RDKit          3D

 22 23  0  0  0  0  0  0  0  0999 V2000
   -9.5386  -16.4654   11.2614 N   0  0  0  0  0  0  0  0  0  0  0  0
   -9.2704  -17.7860   11.2285 C   0  0  0  0  0  0  0  0  0  0  0  0
   -8.1208  -18.1703   11.1419 O   0  0  0  0  0  0  0  0  0  0  0  0
  -10.3750  -18.7662   11.2978 C   0  0  0  0  0  0  0  0  0  0  0  0
  -11.4853  -18.6309   10.4631 C   0  0  0  0  0  0  0  0  0  0  0  0
  -12.5125  -19.5482   10.5324 C   0  0  0  0  0  0  0  0  0  0  0  0
  -12.4452  -20.6014   11.4280 C   0  0  0  0  0  0  0  0  0  0  0  0
  -11.3473  -20.7414   12.2584 C   0  0  0  0  0  0  0  0  0  0  0  0
  -10.3095  -19.8338   12.1951 C   0  0  0  0  0  0  0  0  0  0  0  0
  -11.2817  -21.8909   13.2310 C   0  0  0  0  0  0  0  0  0  0  0  0
  -12.5112  -22.7837   13.0480 C   0  0  0  0  0  0  0  0  0  0  0  0
  -10.0152  -22.7081   12.9704 C   0  0  0  0  0  0  0  0  0  0  0  0
  -11.2539  -21.3483   14.6604 C   0  0  0  0  0  0  0  0  0  0  0  0
  -13.7125  -19.4037    9.6321 C   0  0  0  0  0  0  0  0  0  0  0  0
  -13.7786  -17.9724    9.0968 C   0  0  0  0  0  0  0  0  0  0  0  0
  -13.5916  -20.3807    8.4603 C   0  0  0  0  0  0  0  0  0  0  0  0
  -14.9851  -19.7123   10.4243 C   0  0  0  0  0  0  0  0  0  0  0  0
   -8.4951  -15.5382   11.1908 C   0  0  0  0  0  0  0  0  0  0  0  0
   -8.5800  -14.2674   11.5040 N   0  0  0  0  0  0  0  0  0  0  0  0
   -7.3084  -13.7107   11.2870 N   0  0  0  0  0  0  0  0  0  0  0  0
   -6.5255  -14.7109   10.8457 C   0  0  0  0  0  0  0  0  0  0  0  0
   -7.2453  -15.8017   10.7976 N   0  0  0  0  0  0  0  0  0  0  0  0
  1  2  1  0
  1 18  1  0
  2  3  2  0
  2  4  1  0
  4  5  2  0
  4  9  1  0
  5  6  1  0
  6  7  2  0
  6 14  1  0
  7  8  1  0
  8  9  2  0
  8 10  1  0
 10 11  1  0
 10 12  1  0
 10 13  1  0
 14 15  1  0
 14 16  1  0
 14 17  1  0
 18 19  2  0
 18 22  1  0
 19 20  1  0
 20 21  1  0
 21 22  2  0
M  END
>  <Gold.Gold.Protein.RotatedWaterAtoms>  (535) 


>  <Gold.Id.Protein>  (535) 


>  <Gold.PLP.Chemscore.CHOScore>  (535) 
0.9860

>  <Gold.PLP.Chemscore.Hbond>  (535) 
1.0000

>  <Gold.PLP.Chemscore.Internal.Correction>  (535) 
2.3201

>  <Gold.PLP.Chemscore.Metal>  (535) 
0.0000

>  <Gold.PLP.Fitness>  (535) 
46.2093

>  <Gold.PLP.PLP>  (535) 
-42.5135

>  <Gold.PLP.ligand.clash>  (535) 
1.1530

>  <Gold.PLP.ligand.torsion>  (535) 
1.7146

>  <Gold.PLP.part.buried>  (535) 
-7.0303

>  <Gold.PLP.part.hbond>  (535) 
-1.0000

>  <Gold.PLP.part.metal>  (535) 
0.0000

>  <Gold.PLP.part.nonpolar>  (535) 
-36.2477

>  <Gold.PLP.part.repulsive>  (535) 
0.3259

>  <Gold.Protein.RotatedAtoms>  (535) 


>  <Gold.Protein.RotatedTorsions>  (535) 


>  <Gold.Protein.RotatedWaterAtoms>  (535) 


>  <Gold.Version>  (535) 
5.3.0

>  <PLP.Chemscore.CHOScore>  (535) 


>  <PLP.Chemscore.Hbond>  (535) 


>  <PLP.Chemscore.Internal.Correction>  (535) 


>  <PLP.Chemscore.Metal>  (535) 


>  <PLP.Fitness>  (535) 


>  <PLP.PLP>  (535) 


>  <PLP.ligand.clash>  (535) 


>  <PLP.ligand.torsion>  (535) 


>  <PLP.part.buried>  (535) 


>  <PLP.part.hbond>  (535) 


>  <PLP.part.metal>  (535) 


>  <PLP.part.nonpolar>  (535) 


>  <PLP.part.repulsive>  (535) 


>  <Version>  (535) 


$$$$
3535|Compound_2158|Compounds_3D_F|sdf|632|dock1|1
     RDKit          3D

 21 22  0  0  0  0  0  0  0  0999 V2000
   -9.8186  -17.5574   11.5052 N   0  0  0  0  0  0  0  0  0  0  0  0
   -9.6509  -16.4039   12.1823 C   0  0  0  0  0  0  0  0  0  0  0  0
  -10.5853  -15.9107   12.7825 O   0  0  0  0  0  0  0  0  0  0  0  0
   -8.3303  -15.7396   12.1942 C   0  0  0  0  0  0  0  0  0  0  0  0
   -7.1619  -16.5029   12.2032 C   0  0  0  0  0  0  0  0  0  0  0  0
   -5.9330  -15.8776   12.2144 C   0  0  0  0  0  0  0  0  0  0  0  0
   -5.8568  -14.4956   12.2176 C   0  0  0  0  0  0  0  0  0  0  0  0
   -7.0112  -13.7328   12.2096 C   0  0  0  0  0  0  0  0  0  0  0  0
   -8.2466  -14.3459   12.1914 C   0  0  0  0  0  0  0  0  0  0  0  0
   -6.9176  -12.2285   12.2134 C   0  0  0  0  0  0  0  0  0  0  0  0
   -4.6701  -16.7002   12.2234 C   0  0  0  0  0  0  0  0  0  0  0  0
  -11.0570  -18.1777   11.4896 C   0  0  0  0  0  0  0  0  0  0  0  0
  -11.5554  -18.8500   10.4862 N   0  0  0  0  0  0  0  0  0  0  0  0
  -12.7869  -19.3080   10.8460 C   0  0  0  0  0  0  0  0  0  0  0  0
  -13.0190  -18.8822   12.1176 C   0  0  0  0  0  0  0  0  0  0  0  0
  -11.9351  -18.1878   12.5056 O   0  0  0  0  0  0  0  0  0  0  0  0
  -13.6982  -20.1117   10.0134 C   0  0  0  0  0  0  0  0  0  0  0  0
  -14.7735  -20.4643   10.4562 O   0  0  0  0  0  0  0  0  0  0  0  0
  -13.3390  -20.4560    8.7612 O   0  0  0  0  0  0  0  0  0  0  0  0
  -14.3320  -21.1452    7.9564 C   0  0  0  0  0  0  0  0  0  0  0  0
  -14.5871  -22.5356    8.5406 C   0  0  0  0  0  0  0  0  0  0  0  0
  1  2  1  0
  1 12  1  0
  2  3  2  0
  2  4  1  0
  4  5  2  0
  4  9  1  0
  5  6  1  0
  6  7  2  0
  6 11  1  0
  7  8  1  0
  8  9  2  0
  8 10  1  0
 12 13  2  0
 12 16  1  0
 13 14  1  0
 14 15  2  0
 14 17  1  0
 15 16  1  0
 17 18  2  0
 17 19  1  0
 19 20  1  0
 20 21  1  0
M  END
>  <Gold.Gold.Protein.RotatedWaterAtoms>  (536) 


>  <Gold.Id.Protein>  (536) 


>  <Gold.PLP.Chemscore.CHOScore>  (536) 
1.0000

>  <Gold.PLP.Chemscore.Hbond>  (536) 
2.6294

>  <Gold.PLP.Chemscore.Internal.Correction>  (536) 
0.0737

>  <Gold.PLP.Chemscore.Metal>  (536) 
0.0000

>  <Gold.PLP.Fitness>  (536) 
58.9428

>  <Gold.PLP.PLP>  (536) 
-49.5560

>  <Gold.PLP.ligand.clash>  (536) 
0.0000

>  <Gold.PLP.ligand.torsion>  (536) 
0.7876

>  <Gold.PLP.part.buried>  (536) 
-5.1985

>  <Gold.PLP.part.hbond>  (536) 
-3.4727

>  <Gold.PLP.part.metal>  (536) 
0.0000

>  <Gold.PLP.part.nonpolar>  (536) 
-42.7750

>  <Gold.PLP.part.repulsive>  (536) 
1.4106

>  <Gold.Protein.RotatedAtoms>  (536) 


>  <Gold.Protein.RotatedTorsions>  (536) 


>  <Gold.Protein.RotatedWaterAtoms>  (536) 


>  <Gold.Version>  (536) 
5.3.0

>  <PLP.Chemscore.CHOScore>  (536) 


>  <PLP.Chemscore.Hbond>  (536) 


>  <PLP.Chemscore.Internal.Correction>  (536) 


>  <PLP.Chemscore.Metal>  (536) 


>  <PLP.Fitness>  (536) 


>  <PLP.PLP>  (536) 


>  <PLP.ligand.clash>  (536) 


>  <PLP.ligand.torsion>  (536) 


>  <PLP.part.buried>  (536) 


>  <PLP.part.hbond>  (536) 


>  <PLP.part.metal>  (536) 


>  <PLP.part.nonpolar>  (536) 


>  <PLP.part.repulsive>  (536) 


>  <Version>  (536) 


$$$$
3536|Compound_2158|Compounds_3D_F|sdf|632|dock2|1
     RDKit          3D

 21 22  0  0  0  0  0  0  0  0999 V2000
   -9.8945  -17.4249   11.4428 N   0  0  0  0  0  0  0  0  0  0  0  0
   -9.6730  -16.3104   12.1681 C   0  0  0  0  0  0  0  0  0  0  0  0
  -10.5819  -15.8035   12.7954 O   0  0  0  0  0  0  0  0  0  0  0  0
   -8.3243  -15.7057   12.2000 C   0  0  0  0  0  0  0  0  0  0  0  0
   -8.1783  -14.3177   12.1951 C   0  0  0  0  0  0  0  0  0  0  0  0
   -6.9178  -13.7596   12.2248 C   0  0  0  0  0  0  0  0  0  0  0  0
   -5.7985  -14.5731   12.2586 C   0  0  0  0  0  0  0  0  0  0  0  0
   -5.9361  -15.9499   12.2628 C   0  0  0  0  0  0  0  0  0  0  0  0
   -7.1914  -16.5208   12.2403 C   0  0  0  0  0  0  0  0  0  0  0  0
   -4.7110  -16.8272   12.2995 C   0  0  0  0  0  0  0  0  0  0  0  0
   -6.7580  -12.2609   12.2203 C   0  0  0  0  0  0  0  0  0  0  0  0
  -11.1591  -17.9890   11.4086 C   0  0  0  0  0  0  0  0  0  0  0  0
  -11.6388  -18.7159   10.4346 N   0  0  0  0  0  0  0  0  0  0  0  0
  -12.9073  -19.0891   10.7621 C   0  0  0  0  0  0  0  0  0  0  0  0
  -13.1817  -18.5542   11.9829 C   0  0  0  0  0  0  0  0  0  0  0  0
  -12.0862  -17.8799   12.3740 O   0  0  0  0  0  0  0  0  0  0  0  0
  -13.8136  -19.9151    9.9460 C   0  0  0  0  0  0  0  0  0  0  0  0
  -14.9045  -20.2294   10.3795 O   0  0  0  0  0  0  0  0  0  0  0  0
  -13.4328  -20.3221    8.7193 O   0  0  0  0  0  0  0  0  0  0  0  0
  -14.3717  -21.1437    7.9762 C   0  0  0  0  0  0  0  0  0  0  0  0
  -13.6515  -22.3798    7.4351 C   0  0  0  0  0  0  0  0  0  0  0  0
  1  2  1  0
  1 12  1  0
  2  3  2  0
  2  4  1  0
  4  5  2  0
  4  9  1  0
  5  6  1  0
  6  7  2  0
  6 11  1  0
  7  8  1  0
  8  9  2  0
  8 10  1  0
 12 13  2  0
 12 16  1  0
 13 14  1  0
 14 15  2  0
 14 17  1  0
 15 16  1  0
 17 18  2  0
 17 19  1  0
 19 20  1  0
 20 21  1  0
M  END
>  <Gold.Gold.Protein.RotatedWaterAtoms>  (537) 


>  <Gold.Id.Protein>  (537) 


>  <Gold.PLP.Chemscore.CHOScore>  (537) 
1.0000

>  <Gold.PLP.Chemscore.Hbond>  (537) 
2.6087

>  <Gold.PLP.Chemscore.Internal.Correction>  (537) 
0.0600

>  <Gold.PLP.Chemscore.Metal>  (537) 
0.0000

>  <Gold.PLP.Fitness>  (537) 
59.6441

>  <Gold.PLP.PLP>  (537) 
-50.9349

>  <Gold.PLP.ligand.clash>  (537) 
0.0000

>  <Gold.PLP.ligand.torsion>  (537) 
1.0885

>  <Gold.PLP.part.buried>  (537) 
-3.4303

>  <Gold.PLP.part.hbond>  (537) 
-4.5562

>  <Gold.PLP.part.metal>  (537) 
0.0000

>  <Gold.PLP.part.nonpolar>  (537) 
-44.8731

>  <Gold.PLP.part.repulsive>  (537) 
1.6534

>  <Gold.Protein.RotatedAtoms>  (537) 


>  <Gold.Protein.RotatedTorsions>  (537) 


>  <Gold.Protein.RotatedWaterAtoms>  (537) 


>  <Gold.Version>  (537) 
5.3.0

>  <PLP.Chemscore.CHOScore>  (537) 


>  <PLP.Chemscore.Hbond>  (537) 


>  <PLP.Chemscore.Internal.Correction>  (537) 


>  <PLP.Chemscore.Metal>  (537) 


>  <PLP.Fitness>  (537) 


>  <PLP.PLP>  (537) 


>  <PLP.ligand.clash>  (537) 


>  <PLP.ligand.torsion>  (537) 


>  <PLP.part.buried>  (537) 


>  <PLP.part.hbond>  (537) 


>  <PLP.part.metal>  (537) 


>  <PLP.part.nonpolar>  (537) 


>  <PLP.part.repulsive>  (537) 


>  <Version>  (537) 


$$$$
3537|Compound_2158|Compounds_3D_F|sdf|632|dock3|1
     RDKit          3D

 21 22  0  0  0  0  0  0  0  0999 V2000
   -9.9258  -17.4558   11.3499 N   0  0  0  0  0  0  0  0  0  0  0  0
   -9.6911  -16.3803   12.1280 C   0  0  0  0  0  0  0  0  0  0  0  0
  -10.5875  -15.9097   12.8000 O   0  0  0  0  0  0  0  0  0  0  0  0
   -8.3432  -15.7741   12.1633 C   0  0  0  0  0  0  0  0  0  0  0  0
   -8.1991  -14.3859   12.1723 C   0  0  0  0  0  0  0  0  0  0  0  0
   -6.9393  -13.8264   12.2052 C   0  0  0  0  0  0  0  0  0  0  0  0
   -5.8188  -14.6387   12.2285 C   0  0  0  0  0  0  0  0  0  0  0  0
   -5.9546  -16.0156   12.2189 C   0  0  0  0  0  0  0  0  0  0  0  0
   -7.2092  -16.5880   12.1930 C   0  0  0  0  0  0  0  0  0  0  0  0
   -4.7282  -16.8915   12.2442 C   0  0  0  0  0  0  0  0  0  0  0  0
   -6.7816  -12.3275   12.2156 C   0  0  0  0  0  0  0  0  0  0  0  0
  -11.1898  -18.0212   11.3127 C   0  0  0  0  0  0  0  0  0  0  0  0
  -11.6718  -18.7360   10.3309 N   0  0  0  0  0  0  0  0  0  0  0  0
  -12.9388  -19.1151   10.6577 C   0  0  0  0  0  0  0  0  0  0  0  0
  -13.2097  -18.5965   11.8864 C   0  0  0  0  0  0  0  0  0  0  0  0
  -12.1138  -17.9258   12.2825 O   0  0  0  0  0  0  0  0  0  0  0  0
  -13.8468  -19.9316    9.8340 C   0  0  0  0  0  0  0  0  0  0  0  0
  -14.9440  -20.2357   10.2589 O   0  0  0  0  0  0  0  0  0  0  0  0
  -13.4605  -20.3413    8.6100 O   0  0  0  0  0  0  0  0  0  0  0  0
  -14.4025  -21.1511    7.8580 C   0  0  0  0  0  0  0  0  0  0  0  0
  -14.4771  -22.5501    8.4718 C   0  0  0  0  0  0  0  0  0  0  0  0
  1  2  1  0
  1 12  1  0
  2  3  2  0
  2  4  1  0
  4  5  2  0
  4  9  1  0
  5  6  1  0
  6  7  2  0
  6 11  1  0
  7  8  1  0
  8  9  2  0
  8 10  1  0
 12 13  2  0
 12 16  1  0
 13 14  1  0
 14 15  2  0
 14 17  1  0
 15 16  1  0
 17 18  2  0
 17 19  1  0
 19 20  1  0
 20 21  1  0
M  END
>  <Gold.Gold.Protein.RotatedWaterAtoms>  (538) 


>  <Gold.Id.Protein>  (538) 


>  <Gold.PLP.Chemscore.CHOScore>  (538) 
1.0000

>  <Gold.PLP.Chemscore.Hbond>  (538) 
2.6017

>  <Gold.PLP.Chemscore.Internal.Correction>  (538) 
0.0600

>  <Gold.PLP.Chemscore.Metal>  (538) 
0.0000

>  <Gold.PLP.Fitness>  (538) 
59.3589

>  <Gold.PLP.PLP>  (538) 
-50.1350

>  <Gold.PLP.ligand.clash>  (538) 
0.0000

>  <Gold.PLP.ligand.torsion>  (538) 
0.8206

>  <Gold.PLP.part.buried>  (538) 
-3.0964

>  <Gold.PLP.part.hbond>  (538) 
-4.9425

>  <Gold.PLP.part.metal>  (538) 
0.0000

>  <Gold.PLP.part.nonpolar>  (538) 
-44.3519

>  <Gold.PLP.part.repulsive>  (538) 
1.5356

>  <Gold.Protein.RotatedAtoms>  (538) 


>  <Gold.Protein.RotatedTorsions>  (538) 


>  <Gold.Protein.RotatedWaterAtoms>  (538) 


>  <Gold.Version>  (538) 
5.3.0

>  <PLP.Chemscore.CHOScore>  (538) 


>  <PLP.Chemscore.Hbond>  (538) 


>  <PLP.Chemscore.Internal.Correction>  (538) 


>  <PLP.Chemscore.Metal>  (538) 


>  <PLP.Fitness>  (538) 


>  <PLP.PLP>  (538) 


>  <PLP.ligand.clash>  (538) 


>  <PLP.ligand.torsion>  (538) 


>  <PLP.part.buried>  (538) 


>  <PLP.part.hbond>  (538) 


>  <PLP.part.metal>  (538) 


>  <PLP.part.nonpolar>  (538) 


>  <PLP.part.repulsive>  (538) 


>  <Version>  (538) 


$$$$
3538|Compound_2159|Compounds_3D_F|sdf|633|dock1|1
     RDKit          3D

 28 30  0  0  0  0  0  0  0  0999 V2000
   -9.8556  -21.4470   10.9996 O   0  0  0  0  0  0  0  0  0  0  0  0
  -10.2904  -20.1666   10.9674 C   0  0  0  0  0  0  0  0  0  0  0  0
  -11.6096  -19.8583   10.5468 C   0  0  0  0  0  0  0  0  0  0  0  0
  -12.4667  -20.8050   10.1698 N   0  0  0  0  0  0  0  0  0  0  0  0
  -13.6790  -20.4686    9.7884 C   0  0  0  0  0  0  0  0  0  0  0  0
  -14.0757  -19.1307    9.7755 C   0  0  0  0  0  0  0  0  0  0  0  0
  -13.2448  -18.1793   10.1433 N   0  0  0  0  0  0  0  0  0  0  0  0
  -12.0082  -18.4984   10.5341 C   0  0  0  0  0  0  0  0  0  0  0  0
  -11.1280  -17.5655   10.9186 N   0  0  0  0  0  0  0  0  0  0  0  0
   -9.9133  -17.9092   11.3004 C   0  0  0  0  0  0  0  0  0  0  0  0
   -9.4983  -19.1732   11.3316 N   0  0  0  0  0  0  0  0  0  0  0  0
   -9.0324  -16.9123   11.6907 N   0  0  0  0  0  0  0  0  0  0  0  0
   -9.0670  -15.7072   11.0875 C   0  0  0  0  0  0  0  0  0  0  0  0
   -9.8709  -15.4951   10.2005 O   0  0  0  0  0  0  0  0  0  0  0  0
   -8.1275  -14.6452   11.5048 C   0  0  0  0  0  0  0  0  0  0  0  0
   -6.8839  -14.9826   12.0442 C   0  0  0  0  0  0  0  0  0  0  0  0
   -6.0118  -13.9861   12.4318 C   0  0  0  0  0  0  0  0  0  0  0  0
   -6.3667  -12.6568   12.2876 C   0  0  0  0  0  0  0  0  0  0  0  0
   -7.5967  -12.3162   11.7537 C   0  0  0  0  0  0  0  0  0  0  0  0
   -8.4760  -13.3026   11.3565 C   0  0  0  0  0  0  0  0  0  0  0  0
   -7.9743  -10.8656   11.5998 C   0  0  0  0  0  0  0  0  0  0  0  0
   -4.6703  -14.3474   13.0148 C   0  0  0  0  0  0  0  0  0  0  0  0
  -14.6503  -21.5385    9.3617 C   0  0  0  0  0  0  0  0  0  0  0  0
  -14.7424  -22.5340   10.3824 O   0  0  0  0  0  0  0  0  0  0  0  0
  -14.1606  -22.1828    8.0631 C   0  0  0  0  0  0  0  0  0  0  0  0
  -13.9671  -21.1716    7.0727 O   0  0  0  0  0  0  0  0  0  0  0  0
  -15.2025  -23.1886    7.5680 C   0  0  0  0  0  0  0  0  0  0  0  0
  -16.3569  -22.4882    7.1009 O   0  0  0  0  0  0  0  0  0  0  0  0
  1  2  1  0
  2  3  2  0
  2 11  1  0
  3  4  1  0
  3  8  1  0
  4  5  2  0
  5  6  1  0
  5 23  1  0
  6  7  2  0
  7  8  1  0
  8  9  2  0
  9 10  1  0
 10 11  2  0
 10 12  1  0
 12 13  1  0
 13 14  2  0
 13 15  1  0
 15 16  2  0
 15 20  1  0
 16 17  1  0
 17 18  2  0
 17 22  1  0
 18 19  1  0
 19 20  2  0
 19 21  1  0
 23 24  1  0
 23 25  1  0
 25 26  1  0
 25 27  1  0
 27 28  1  0
M  END
>  <Gold.Gold.Protein.RotatedWaterAtoms>  (539) 


>  <Gold.Id.Protein>  (539) 


>  <Gold.PLP.Chemscore.CHOScore>  (539) 
0.0000

>  <Gold.PLP.Chemscore.Hbond>  (539) 
3.6960

>  <Gold.PLP.Chemscore.Internal.Correction>  (539) 
0.5447

>  <Gold.PLP.Chemscore.Metal>  (539) 
0.0000

>  <Gold.PLP.Fitness>  (539) 
66.1966

>  <Gold.PLP.PLP>  (539) 
-56.0303

>  <Gold.PLP.ligand.clash>  (539) 
0.0000

>  <Gold.PLP.ligand.torsion>  (539) 
0.7332

>  <Gold.PLP.part.buried>  (539) 
-1.5155

>  <Gold.PLP.part.hbond>  (539) 
-4.2419

>  <Gold.PLP.part.metal>  (539) 
0.0000

>  <Gold.PLP.part.nonpolar>  (539) 
-50.3815

>  <Gold.PLP.part.repulsive>  (539) 
0.1976

>  <Gold.Protein.RotatedAtoms>  (539) 


>  <Gold.Protein.RotatedTorsions>  (539) 


>  <Gold.Protein.RotatedWaterAtoms>  (539) 


>  <Gold.Version>  (539) 
5.3.0

>  <PLP.Chemscore.CHOScore>  (539) 


>  <PLP.Chemscore.Hbond>  (539) 


>  <PLP.Chemscore.Internal.Correction>  (539) 


>  <PLP.Chemscore.Metal>  (539) 


>  <PLP.Fitness>  (539) 


>  <PLP.PLP>  (539) 


>  <PLP.ligand.clash>  (539) 


>  <PLP.ligand.torsion>  (539) 


>  <PLP.part.buried>  (539) 


>  <PLP.part.hbond>  (539) 


>  <PLP.part.metal>  (539) 


>  <PLP.part.nonpolar>  (539) 


>  <PLP.part.repulsive>  (539) 


>  <Version>  (539) 


$$$$
3539|Compound_2159|Compounds_3D_F|sdf|633|dock2|1
     RDKit          3D

 28 30  0  0  0  0  0  0  0  0999 V2000
  -13.5843  -18.0837   10.5095 O   0  0  0  0  0  0  0  0  0  0  0  0
  -12.3863  -18.6525   10.2434 C   0  0  0  0  0  0  0  0  0  0  0  0
  -12.3012  -19.8344    9.4635 C   0  0  0  0  0  0  0  0  0  0  0  0
  -13.3841  -20.4279    8.9658 N   0  0  0  0  0  0  0  0  0  0  0  0
  -13.2531  -21.5219    8.2485 C   0  0  0  0  0  0  0  0  0  0  0  0
  -11.9915  -22.0658    8.0039 C   0  0  0  0  0  0  0  0  0  0  0  0
  -10.9083  -21.4962    8.4866 N   0  0  0  0  0  0  0  0  0  0  0  0
  -11.0182  -20.3843    9.2183 C   0  0  0  0  0  0  0  0  0  0  0  0
   -9.9449  -19.7681    9.7293 N   0  0  0  0  0  0  0  0  0  0  0  0
  -10.0826  -18.6708   10.4479 C   0  0  0  0  0  0  0  0  0  0  0  0
  -11.2668  -18.1182   10.6994 N   0  0  0  0  0  0  0  0  0  0  0  0
   -8.9457  -18.0639   10.9588 N   0  0  0  0  0  0  0  0  0  0  0  0
   -8.8142  -16.7234   10.9047 C   0  0  0  0  0  0  0  0  0  0  0  0
   -9.6932  -16.0467   10.4072 O   0  0  0  0  0  0  0  0  0  0  0  0
   -7.6017  -16.0776   11.4500 C   0  0  0  0  0  0  0  0  0  0  0  0
   -7.5958  -14.7050   11.7097 C   0  0  0  0  0  0  0  0  0  0  0  0
   -6.4603  -14.1087   12.2184 C   0  0  0  0  0  0  0  0  0  0  0  0
   -5.3307  -14.8663   12.4708 C   0  0  0  0  0  0  0  0  0  0  0  0
   -5.3303  -16.2261   12.2161 C   0  0  0  0  0  0  0  0  0  0  0  0
   -6.4609  -16.8363   11.7128 C   0  0  0  0  0  0  0  0  0  0  0  0
   -4.0954  -17.0433   12.4947 C   0  0  0  0  0  0  0  0  0  0  0  0
   -6.4511  -12.6283   12.4985 C   0  0  0  0  0  0  0  0  0  0  0  0
  -14.4775  -22.1947    7.6843 C   0  0  0  0  0  0  0  0  0  0  0  0
  -15.4712  -21.2105    7.3930 O   0  0  0  0  0  0  0  0  0  0  0  0
  -15.0292  -23.1899    8.7072 C   0  0  0  0  0  0  0  0  0  0  0  0
  -13.9920  -24.0879    9.1059 O   0  0  0  0  0  0  0  0  0  0  0  0
  -16.1771  -23.9836    8.0791 C   0  0  0  0  0  0  0  0  0  0  0  0
  -17.1571  -23.0794    7.5659 O   0  0  0  0  0  0  0  0  0  0  0  0
  1  2  1  0
  2  3  2  0
  2 11  1  0
  3  4  1  0
  3  8  1  0
  4  5  2  0
  5  6  1  0
  5 23  1  0
  6  7  2  0
  7  8  1  0
  8  9  2  0
  9 10  1  0
 10 11  2  0
 10 12  1  0
 12 13  1  0
 13 14  2  0
 13 15  1  0
 15 16  2  0
 15 20  1  0
 16 17  1  0
 17 18  2  0
 17 22  1  0
 18 19  1  0
 19 20  2  0
 19 21  1  0
 23 24  1  0
 23 25  1  0
 25 26  1  0
 25 27  1  0
 27 28  1  0
M  END
>  <Gold.Gold.Protein.RotatedWaterAtoms>  (540) 


>  <Gold.Id.Protein>  (540) 


>  <Gold.PLP.Chemscore.CHOScore>  (540) 
0.0000

>  <Gold.PLP.Chemscore.Hbond>  (540) 
3.5311

>  <Gold.PLP.Chemscore.Internal.Correction>  (540) 
0.5134

>  <Gold.PLP.Chemscore.Metal>  (540) 
0.0000

>  <Gold.PLP.Fitness>  (540) 
67.6688

>  <Gold.PLP.PLP>  (540) 
-59.0816

>  <Gold.PLP.ligand.clash>  (540) 
0.0000

>  <Gold.PLP.ligand.torsion>  (540) 
1.2598

>  <Gold.PLP.part.buried>  (540) 
-8.8219

>  <Gold.PLP.part.hbond>  (540) 
-5.8443

>  <Gold.PLP.part.metal>  (540) 
0.0000

>  <Gold.PLP.part.nonpolar>  (540) 
-44.7197

>  <Gold.PLP.part.repulsive>  (540) 
0.1423

>  <Gold.Protein.RotatedAtoms>  (540) 


>  <Gold.Protein.RotatedTorsions>  (540) 


>  <Gold.Protein.RotatedWaterAtoms>  (540) 


>  <Gold.Version>  (540) 
5.3.0

>  <PLP.Chemscore.CHOScore>  (540) 


>  <PLP.Chemscore.Hbond>  (540) 


>  <PLP.Chemscore.Internal.Correction>  (540) 


>  <PLP.Chemscore.Metal>  (540) 


>  <PLP.Fitness>  (540) 


>  <PLP.PLP>  (540) 


>  <PLP.ligand.clash>  (540) 


>  <PLP.ligand.torsion>  (540) 


>  <PLP.part.buried>  (540) 


>  <PLP.part.hbond>  (540) 


>  <PLP.part.metal>  (540) 


>  <PLP.part.nonpolar>  (540) 


>  <PLP.part.repulsive>  (540) 


>  <Version>  (540) 


$$$$
3540|Compound_2159|Compounds_3D_F|sdf|633|dock3|1
     RDKit          3D

 28 30  0  0  0  0  0  0  0  0999 V2000
   -9.0391  -19.9400    9.7397 O   0  0  0  0  0  0  0  0  0  0  0  0
   -9.5584  -18.9934   10.5544 C   0  0  0  0  0  0  0  0  0  0  0  0
  -10.8662  -19.1315   11.0864 C   0  0  0  0  0  0  0  0  0  0  0  0
  -11.6300  -20.1865   10.8098 N   0  0  0  0  0  0  0  0  0  0  0  0
  -12.8355  -20.2688   11.3276 C   0  0  0  0  0  0  0  0  0  0  0  0
  -13.3213  -19.2626   12.1637 C   0  0  0  0  0  0  0  0  0  0  0  0
  -12.5839  -18.2113   12.4497 N   0  0  0  0  0  0  0  0  0  0  0  0
  -11.3563  -18.1070   11.9342 C   0  0  0  0  0  0  0  0  0  0  0  0
  -10.5682  -17.0570   12.1975 N   0  0  0  0  0  0  0  0  0  0  0  0
   -9.3597  -16.9801   11.6752 C   0  0  0  0  0  0  0  0  0  0  0  0
   -8.8582  -17.9202   10.8780 N   0  0  0  0  0  0  0  0  0  0  0  0
   -8.5760  -15.8759   11.9731 N   0  0  0  0  0  0  0  0  0  0  0  0
   -8.7531  -14.7215   11.2998 C   0  0  0  0  0  0  0  0  0  0  0  0
   -9.6002  -14.6492   10.4309 O   0  0  0  0  0  0  0  0  0  0  0  0
   -7.9170  -13.5450   11.6184 C   0  0  0  0  0  0  0  0  0  0  0  0
   -6.6079  -13.7188   12.0739 C   0  0  0  0  0  0  0  0  0  0  0  0
   -5.8331  -12.6161   12.3696 C   0  0  0  0  0  0  0  0  0  0  0  0
   -6.3499  -11.3420   12.2164 C   0  0  0  0  0  0  0  0  0  0  0  0
   -7.6455  -11.1633   11.7654 C   0  0  0  0  0  0  0  0  0  0  0  0
   -8.4293  -12.2571   11.4603 C   0  0  0  0  0  0  0  0  0  0  0  0
   -8.1996   -9.7717   11.6009 C   0  0  0  0  0  0  0  0  0  0  0  0
   -4.4212  -12.8008   12.8619 C   0  0  0  0  0  0  0  0  0  0  0  0
  -13.7012  -21.4619   11.0159 C   0  0  0  0  0  0  0  0  0  0  0  0
  -12.9736  -22.6621   11.2832 O   0  0  0  0  0  0  0  0  0  0  0  0
  -14.1044  -21.4274    9.5403 C   0  0  0  0  0  0  0  0  0  0  0  0
  -14.9317  -20.2880    9.2987 O   0  0  0  0  0  0  0  0  0  0  0  0
  -14.8775  -22.7017    9.1926 C   0  0  0  0  0  0  0  0  0  0  0  0
  -14.0084  -23.8307    9.2994 O   0  0  0  0  0  0  0  0  0  0  0  0
  1  2  1  0
  2  3  2  0
  2 11  1  0
  3  4  1  0
  3  8  1  0
  4  5  2  0
  5  6  1  0
  5 23  1  0
  6  7  2  0
  7  8  1  0
  8  9  2  0
  9 10  1  0
 10 11  2  0
 10 12  1  0
 12 13  1  0
 13 14  2  0
 13 15  1  0
 15 16  2  0
 15 20  1  0
 16 17  1  0
 17 18  2  0
 17 22  1  0
 18 19  1  0
 19 20  2  0
 19 21  1  0
 23 24  1  0
 23 25  1  0
 25 26  1  0
 25 27  1  0
 27 28  1  0
M  END
>  <Gold.Gold.Protein.RotatedWaterAtoms>  (541) 


>  <Gold.Id.Protein>  (541) 


>  <Gold.PLP.Chemscore.CHOScore>  (541) 
1.0000

>  <Gold.PLP.Chemscore.Hbond>  (541) 
0.0160

>  <Gold.PLP.Chemscore.Internal.Correction>  (541) 
0.5134

>  <Gold.PLP.Chemscore.Metal>  (541) 
0.0000

>  <Gold.PLP.Fitness>  (541) 
58.6528

>  <Gold.PLP.PLP>  (541) 
-57.6945

>  <Gold.PLP.ligand.clash>  (541) 
0.0000

>  <Gold.PLP.ligand.torsion>  (541) 
1.3016

>  <Gold.PLP.part.buried>  (541) 
-2.6240

>  <Gold.PLP.part.hbond>  (541) 
-2.6285

>  <Gold.PLP.part.metal>  (541) 
0.0000

>  <Gold.PLP.part.nonpolar>  (541) 
-53.9604

>  <Gold.PLP.part.repulsive>  (541) 
2.3596

>  <Gold.Protein.RotatedAtoms>  (541) 


>  <Gold.Protein.RotatedTorsions>  (541) 


>  <Gold.Protein.RotatedWaterAtoms>  (541) 


>  <Gold.Version>  (541) 
5.3.0

>  <PLP.Chemscore.CHOScore>  (541) 


>  <PLP.Chemscore.Hbond>  (541) 


>  <PLP.Chemscore.Internal.Correction>  (541) 


>  <PLP.Chemscore.Metal>  (541) 


>  <PLP.Fitness>  (541) 


>  <PLP.PLP>  (541) 


>  <PLP.ligand.clash>  (541) 


>  <PLP.ligand.torsion>  (541) 


>  <PLP.part.buried>  (541) 


>  <PLP.part.hbond>  (541) 


>  <PLP.part.metal>  (541) 


>  <PLP.part.nonpolar>  (541) 


>  <PLP.part.repulsive>  (541) 


>  <Version>  (541) 


$$$$
3541|Compound_2159|Compounds_3D_F|sdf|633|dock4|1
     RDKit          3D

 28 30  0  0  0  0  0  0  0  0999 V2000
  -13.6324  -18.2166   12.4617 O   0  0  0  0  0  0  0  0  0  0  0  0
  -12.4771  -18.6600   11.9156 C   0  0  0  0  0  0  0  0  0  0  0  0
  -12.4588  -19.8180   11.0964 C   0  0  0  0  0  0  0  0  0  0  0  0
  -13.5652  -20.5103   10.8329 N   0  0  0  0  0  0  0  0  0  0  0  0
  -13.4967  -21.5770   10.0675 C   0  0  0  0  0  0  0  0  0  0  0  0
  -12.2771  -21.9895    9.5289 C   0  0  0  0  0  0  0  0  0  0  0  0
  -11.1717  -21.3207    9.7769 N   0  0  0  0  0  0  0  0  0  0  0  0
  -11.2182  -20.2343   10.5522 C   0  0  0  0  0  0  0  0  0  0  0  0
  -10.1203  -19.5203   10.8315 N   0  0  0  0  0  0  0  0  0  0  0  0
  -10.1954  -18.4511   11.5998 C   0  0  0  0  0  0  0  0  0  0  0  0
  -11.3391  -18.0223   12.1282 N   0  0  0  0  0  0  0  0  0  0  0  0
   -9.0350  -17.7402   11.8646 N   0  0  0  0  0  0  0  0  0  0  0  0
   -9.0092  -16.4031   11.6944 C   0  0  0  0  0  0  0  0  0  0  0  0
  -10.0042  -15.8209   11.3083 O   0  0  0  0  0  0  0  0  0  0  0  0
   -7.7715  -15.6463   11.9772 C   0  0  0  0  0  0  0  0  0  0  0  0
   -7.8100  -14.2537   12.0794 C   0  0  0  0  0  0  0  0  0  0  0  0
   -6.6508  -13.5536   12.3433 C   0  0  0  0  0  0  0  0  0  0  0  0
   -5.4535  -14.2273   12.5061 C   0  0  0  0  0  0  0  0  0  0  0  0
   -5.4088  -15.6064   12.4064 C   0  0  0  0  0  0  0  0  0  0  0  0
   -6.5617  -16.3194   12.1487 C   0  0  0  0  0  0  0  0  0  0  0  0
   -4.1003  -16.3316   12.5859 C   0  0  0  0  0  0  0  0  0  0  0  0
   -6.6895  -12.0514   12.4530 C   0  0  0  0  0  0  0  0  0  0  0  0
  -14.7476  -22.3616    9.7681 C   0  0  0  0  0  0  0  0  0  0  0  0
  -14.6580  -23.6521   10.3746 O   0  0  0  0  0  0  0  0  0  0  0  0
  -14.9005  -22.5188    8.2539 C   0  0  0  0  0  0  0  0  0  0  0  0
  -15.1765  -21.2455    7.6679 O   0  0  0  0  0  0  0  0  0  0  0  0
  -16.0544  -23.4786    7.9544 C   0  0  0  0  0  0  0  0  0  0  0  0
  -17.2616  -22.7339    7.7830 O   0  0  0  0  0  0  0  0  0  0  0  0
  1  2  1  0
  2  3  2  0
  2 11  1  0
  3  4  1  0
  3  8  1  0
  4  5  2  0
  5  6  1  0
  5 23  1  0
  6  7  2  0
  7  8  1  0
  8  9  2  0
  9 10  1  0
 10 11  2  0
 10 12  1  0
 12 13  1  0
 13 14  2  0
 13 15  1  0
 15 16  2  0
 15 20  1  0
 16 17  1  0
 17 18  2  0
 17 22  1  0
 18 19  1  0
 19 20  2  0
 19 21  1  0
 23 24  1  0
 23 25  1  0
 25 26  1  0
 25 27  1  0
 27 28  1  0
M  END
>  <Gold.Gold.Protein.RotatedWaterAtoms>  (542) 


>  <Gold.Id.Protein>  (542) 


>  <Gold.PLP.Chemscore.CHOScore>  (542) 
0.0000

>  <Gold.PLP.Chemscore.Hbond>  (542) 
4.2765

>  <Gold.PLP.Chemscore.Internal.Correction>  (542) 
0.5134

>  <Gold.PLP.Chemscore.Metal>  (542) 
0.0000

>  <Gold.PLP.Fitness>  (542) 
67.9105

>  <Gold.PLP.PLP>  (542) 
-56.7559

>  <Gold.PLP.ligand.clash>  (542) 
0.0000

>  <Gold.PLP.ligand.torsion>  (542) 
1.0941

>  <Gold.PLP.part.buried>  (542) 
-10.9498

>  <Gold.PLP.part.hbond>  (542) 
-4.3622

>  <Gold.PLP.part.metal>  (542) 
0.0000

>  <Gold.PLP.part.nonpolar>  (542) 
-42.3079

>  <Gold.PLP.part.repulsive>  (542) 
0.2561

>  <Gold.Protein.RotatedAtoms>  (542) 


>  <Gold.Protein.RotatedTorsions>  (542) 


>  <Gold.Protein.RotatedWaterAtoms>  (542) 


>  <Gold.Version>  (542) 
5.3.0

>  <PLP.Chemscore.CHOScore>  (542) 


>  <PLP.Chemscore.Hbond>  (542) 


>  <PLP.Chemscore.Internal.Correction>  (542) 


>  <PLP.Chemscore.Metal>  (542) 


>  <PLP.Fitness>  (542) 


>  <PLP.PLP>  (542) 


>  <PLP.ligand.clash>  (542) 


>  <PLP.ligand.torsion>  (542) 


>  <PLP.part.buried>  (542) 


>  <PLP.part.hbond>  (542) 


>  <PLP.part.metal>  (542) 


>  <PLP.part.nonpolar>  (542) 


>  <PLP.part.repulsive>  (542) 


>  <Version>  (542) 


$$$$
3542|Compound_2159|Compounds_3D_F|sdf|633|dock5|1
     RDKit          3D

 28 30  0  0  0  0  0  0  0  0999 V2000
   -8.8683  -20.3010   10.1960 O   0  0  0  0  0  0  0  0  0  0  0  0
   -9.3623  -19.2087   10.8224 C   0  0  0  0  0  0  0  0  0  0  0  0
  -10.6884  -19.1982   11.3259 C   0  0  0  0  0  0  0  0  0  0  0  0
  -11.4948  -20.2509   11.2049 N   0  0  0  0  0  0  0  0  0  0  0  0
  -12.7158  -20.1923   11.6886 C   0  0  0  0  0  0  0  0  0  0  0  0
  -13.1740  -19.0391   12.3271 C   0  0  0  0  0  0  0  0  0  0  0  0
  -12.3944  -17.9874   12.4570 N   0  0  0  0  0  0  0  0  0  0  0  0
  -11.1503  -18.0249   11.9727 C   0  0  0  0  0  0  0  0  0  0  0  0
  -10.3197  -16.9803   12.0823 N   0  0  0  0  0  0  0  0  0  0  0  0
   -9.0958  -17.0451   11.5953 C   0  0  0  0  0  0  0  0  0  0  0  0
   -8.6198  -18.1274   10.9845 N   0  0  0  0  0  0  0  0  0  0  0  0
   -8.2678  -15.9413   11.7296 N   0  0  0  0  0  0  0  0  0  0  0  0
   -8.7978  -14.7030   11.7848 C   0  0  0  0  0  0  0  0  0  0  0  0
  -10.0025  -14.5546   11.7163 O   0  0  0  0  0  0  0  0  0  0  0  0
   -7.9140  -13.5271   11.9282 C   0  0  0  0  0  0  0  0  0  0  0  0
   -8.4161  -12.2424   11.7070 C   0  0  0  0  0  0  0  0  0  0  0  0
   -7.5853  -11.1492   11.8424 C   0  0  0  0  0  0  0  0  0  0  0  0
   -6.2592  -11.3233   12.1957 C   0  0  0  0  0  0  0  0  0  0  0  0
   -5.7560  -12.5929   12.4165 C   0  0  0  0  0  0  0  0  0  0  0  0
   -6.5772  -13.6945   12.2903 C   0  0  0  0  0  0  0  0  0  0  0  0
   -4.3104  -12.7727   12.8017 C   0  0  0  0  0  0  0  0  0  0  0  0
   -8.1242   -9.7626   11.6034 C   0  0  0  0  0  0  0  0  0  0  0  0
  -13.6296  -21.3825   11.5527 C   0  0  0  0  0  0  0  0  0  0  0  0
  -14.3128  -21.6030   12.7879 O   0  0  0  0  0  0  0  0  0  0  0  0
  -12.8041  -22.6210   11.1979 C   0  0  0  0  0  0  0  0  0  0  0  0
  -13.6778  -23.6767   10.7942 O   0  0  0  0  0  0  0  0  0  0  0  0
  -11.9990  -23.0653   12.4214 C   0  0  0  0  0  0  0  0  0  0  0  0
  -12.8839  -23.6100   13.4021 O   0  0  0  0  0  0  0  0  0  0  0  0
  1  2  1  0
  2  3  2  0
  2 11  1  0
  3  4  1  0
  3  8  1  0
  4  5  2  0
  5  6  1  0
  5 23  1  0
  6  7  2  0
  7  8  1  0
  8  9  2  0
  9 10  1  0
 10 11  2  0
 10 12  1  0
 12 13  1  0
 13 14  2  0
 13 15  1  0
 15 16  2  0
 15 20  1  0
 16 17  1  0
 17 18  2  0
 17 22  1  0
 18 19  1  0
 19 20  2  0
 19 21  1  0
 23 24  1  0
 23 25  1  0
 25 26  1  0
 25 27  1  0
 27 28  1  0
M  END
>  <Gold.Gold.Protein.RotatedWaterAtoms>  (543) 


>  <Gold.Id.Protein>  (543) 


>  <Gold.PLP.Chemscore.CHOScore>  (543) 
1.0000

>  <Gold.PLP.Chemscore.Hbond>  (543) 
2.7560

>  <Gold.PLP.Chemscore.Internal.Correction>  (543) 
0.5134

>  <Gold.PLP.Chemscore.Metal>  (543) 
0.0000

>  <Gold.PLP.Fitness>  (543) 
68.6687

>  <Gold.PLP.PLP>  (543) 
-59.6833

>  <Gold.PLP.ligand.clash>  (543) 
1.0509

>  <Gold.PLP.ligand.torsion>  (543) 
0.8725

>  <Gold.PLP.part.buried>  (543) 
-3.4523

>  <Gold.PLP.part.hbond>  (543) 
-2.9977

>  <Gold.PLP.part.metal>  (543) 
0.0000

>  <Gold.PLP.part.nonpolar>  (543) 
-53.3773

>  <Gold.PLP.part.repulsive>  (543) 
0.3026

>  <Gold.Protein.RotatedAtoms>  (543) 


>  <Gold.Protein.RotatedTorsions>  (543) 


>  <Gold.Protein.RotatedWaterAtoms>  (543) 


>  <Gold.Version>  (543) 
5.3.0

>  <PLP.Chemscore.CHOScore>  (543) 


>  <PLP.Chemscore.Hbond>  (543) 


>  <PLP.Chemscore.Internal.Correction>  (543) 


>  <PLP.Chemscore.Metal>  (543) 


>  <PLP.Fitness>  (543) 


>  <PLP.PLP>  (543) 


>  <PLP.ligand.clash>  (543) 


>  <PLP.ligand.torsion>  (543) 


>  <PLP.part.buried>  (543) 


>  <PLP.part.hbond>  (543) 


>  <PLP.part.metal>  (543) 


>  <PLP.part.nonpolar>  (543) 


>  <PLP.part.repulsive>  (543) 


>  <Version>  (543) 


$$$$
3543|Compound_2159|Compounds_3D_F|sdf|633|dock6|1
     RDKit          3D

 28 30  0  0  0  0  0  0  0  0999 V2000
  -13.2348  -18.9896   13.0345 O   0  0  0  0  0  0  0  0  0  0  0  0
  -12.2578  -19.1563   12.1141 C   0  0  0  0  0  0  0  0  0  0  0  0
  -12.4151  -20.0779   11.0471 C   0  0  0  0  0  0  0  0  0  0  0  0
  -13.5184  -20.8100   10.9074 N   0  0  0  0  0  0  0  0  0  0  0  0
  -13.6167  -21.6504    9.9012 C   0  0  0  0  0  0  0  0  0  0  0  0
  -12.5773  -21.7818    8.9793 C   0  0  0  0  0  0  0  0  0  0  0  0
  -11.4782  -21.0688    9.0988 N   0  0  0  0  0  0  0  0  0  0  0  0
  -11.3569  -20.2091   10.1136 C   0  0  0  0  0  0  0  0  0  0  0  0
  -10.2583  -19.4609   10.2758 N   0  0  0  0  0  0  0  0  0  0  0  0
  -10.1656  -18.6194   11.2871 C   0  0  0  0  0  0  0  0  0  0  0  0
  -11.1358  -18.4613   12.1842 N   0  0  0  0  0  0  0  0  0  0  0  0
   -9.0109  -17.8635   11.4189 N   0  0  0  0  0  0  0  0  0  0  0  0
   -9.0687  -16.6336   11.9678 C   0  0  0  0  0  0  0  0  0  0  0  0
  -10.1341  -16.1874   12.3469 O   0  0  0  0  0  0  0  0  0  0  0  0
   -7.8369  -15.8287   12.1079 C   0  0  0  0  0  0  0  0  0  0  0  0
   -6.5949  -16.4605   12.2059 C   0  0  0  0  0  0  0  0  0  0  0  0
   -5.4491  -15.7030   12.3367 C   0  0  0  0  0  0  0  0  0  0  0  0
   -5.5287  -14.3223   12.3711 C   0  0  0  0  0  0  0  0  0  0  0  0
   -6.7557  -13.6907   12.2742 C   0  0  0  0  0  0  0  0  0  0  0  0
   -7.9089  -14.4359   12.1371 C   0  0  0  0  0  0  0  0  0  0  0  0
   -6.8325  -12.1863   12.3120 C   0  0  0  0  0  0  0  0  0  0  0  0
   -4.1084  -16.3820   12.4435 C   0  0  0  0  0  0  0  0  0  0  0  0
  -14.8645  -22.4796    9.7414 C   0  0  0  0  0  0  0  0  0  0  0  0
  -14.6253  -23.8007   10.2300 O   0  0  0  0  0  0  0  0  0  0  0  0
  -15.2474  -22.5443    8.2614 C   0  0  0  0  0  0  0  0  0  0  0  0
  -15.5257  -21.2272    7.7831 O   0  0  0  0  0  0  0  0  0  0  0  0
  -16.4908  -23.4208    8.0939 C   0  0  0  0  0  0  0  0  0  0  0  0
  -17.4253  -22.7636    7.2359 O   0  0  0  0  0  0  0  0  0  0  0  0
  1  2  1  0
  2  3  2  0
  2 11  1  0
  3  4  1  0
  3  8  1  0
  4  5  2  0
  5  6  1  0
  5 23  1  0
  6  7  2  0
  7  8  1  0
  8  9  2  0
  9 10  1  0
 10 11  2  0
 10 12  1  0
 12 13  1  0
 13 14  2  0
 13 15  1  0
 15 16  2  0
 15 20  1  0
 16 17  1  0
 17 18  2  0
 17 22  1  0
 18 19  1  0
 19 20  2  0
 19 21  1  0
 23 24  1  0
 23 25  1  0
 25 26  1  0
 25 27  1  0
 27 28  1  0
M  END
>  <Gold.Gold.Protein.RotatedWaterAtoms>  (544) 


>  <Gold.Id.Protein>  (544) 


>  <Gold.PLP.Chemscore.CHOScore>  (544) 
0.0000

>  <Gold.PLP.Chemscore.Hbond>  (544) 
5.5500

>  <Gold.PLP.Chemscore.Internal.Correction>  (544) 
0.4656

>  <Gold.PLP.Chemscore.Metal>  (544) 
0.0000

>  <Gold.PLP.Fitness>  (544) 
72.2303

>  <Gold.PLP.PLP>  (544) 
-58.8965

>  <Gold.PLP.ligand.clash>  (544) 
0.3950

>  <Gold.PLP.ligand.torsion>  (544) 
1.6934

>  <Gold.PLP.part.buried>  (544) 
-10.3207

>  <Gold.PLP.part.hbond>  (544) 
-8.5512

>  <Gold.PLP.part.metal>  (544) 
0.0000

>  <Gold.PLP.part.nonpolar>  (544) 
-42.8695

>  <Gold.PLP.part.repulsive>  (544) 
0.2065

>  <Gold.Protein.RotatedAtoms>  (544) 


>  <Gold.Protein.RotatedTorsions>  (544) 


>  <Gold.Protein.RotatedWaterAtoms>  (544) 


>  <Gold.Version>  (544) 
5.3.0

>  <PLP.Chemscore.CHOScore>  (544) 


>  <PLP.Chemscore.Hbond>  (544) 


>  <PLP.Chemscore.Internal.Correction>  (544) 


>  <PLP.Chemscore.Metal>  (544) 


>  <PLP.Fitness>  (544) 


>  <PLP.PLP>  (544) 


>  <PLP.ligand.clash>  (544) 


>  <PLP.ligand.torsion>  (544) 


>  <PLP.part.buried>  (544) 


>  <PLP.part.hbond>  (544) 


>  <PLP.part.metal>  (544) 


>  <PLP.part.nonpolar>  (544) 


>  <PLP.part.repulsive>  (544) 


>  <Version>  (544) 


$$$$
3544|Compound_2159|Compounds_3D_F|sdf|633|dock7|1
     RDKit          3D

 28 30  0  0  0  0  0  0  0  0999 V2000
  -10.0332  -22.5180    9.8428 O   0  0  0  0  0  0  0  0  0  0  0  0
  -10.3938  -21.2176    9.9351 C   0  0  0  0  0  0  0  0  0  0  0  0
  -11.6552  -20.7785    9.4572 C   0  0  0  0  0  0  0  0  0  0  0  0
  -12.5283  -21.6176    8.9035 N   0  0  0  0  0  0  0  0  0  0  0  0
  -13.6850  -21.1620    8.4759 C   0  0  0  0  0  0  0  0  0  0  0  0
  -14.0061  -19.8094    8.5971 C   0  0  0  0  0  0  0  0  0  0  0  0
  -13.1581  -18.9628    9.1402 N   0  0  0  0  0  0  0  0  0  0  0  0
  -11.9771  -19.4039    9.5811 C   0  0  0  0  0  0  0  0  0  0  0  0
  -11.0823  -18.5808   10.1423 N   0  0  0  0  0  0  0  0  0  0  0  0
   -9.9237  -19.0438   10.5695 C   0  0  0  0  0  0  0  0  0  0  0  0
   -9.5818  -20.3266   10.4769 N   0  0  0  0  0  0  0  0  0  0  0  0
   -9.0253  -18.1580   11.1444 N   0  0  0  0  0  0  0  0  0  0  0  0
   -8.9776  -16.8779   10.7245 C   0  0  0  0  0  0  0  0  0  0  0  0
   -9.7227  -16.5004    9.8412 O   0  0  0  0  0  0  0  0  0  0  0  0
   -8.0195  -15.9345   11.3383 C   0  0  0  0  0  0  0  0  0  0  0  0
   -8.2875  -14.5635   11.3360 C   0  0  0  0  0  0  0  0  0  0  0  0
   -7.3886  -13.6886   11.9106 C   0  0  0  0  0  0  0  0  0  0  0  0
   -6.2252  -14.1661   12.4872 C   0  0  0  0  0  0  0  0  0  0  0  0
   -5.9543  -15.5227   12.4930 C   0  0  0  0  0  0  0  0  0  0  0  0
   -6.8474  -16.4093   11.9271 C   0  0  0  0  0  0  0  0  0  0  0  0
   -4.6849  -16.0336   13.1239 C   0  0  0  0  0  0  0  0  0  0  0  0
   -7.6748  -12.2094   11.9086 C   0  0  0  0  0  0  0  0  0  0  0  0
  -14.6743  -22.1101    7.8493 C   0  0  0  0  0  0  0  0  0  0  0  0
  -15.7037  -21.3636    7.1980 O   0  0  0  0  0  0  0  0  0  0  0  0
  -15.2929  -22.9924    8.9355 C   0  0  0  0  0  0  0  0  0  0  0  0
  -14.2614  -23.7235    9.6006 O   0  0  0  0  0  0  0  0  0  0  0  0
  -16.2807  -23.9714    8.2966 C   0  0  0  0  0  0  0  0  0  0  0  0
  -17.3064  -23.2409    7.6215 O   0  0  0  0  0  0  0  0  0  0  0  0
  1  2  1  0
  2  3  2  0
  2 11  1  0
  3  4  1  0
  3  8  1  0
  4  5  2  0
  5  6  1  0
  5 23  1  0
  6  7  2  0
  7  8  1  0
  8  9  2  0
  9 10  1  0
 10 11  2  0
 10 12  1  0
 12 13  1  0
 13 14  2  0
 13 15  1  0
 15 16  2  0
 15 20  1  0
 16 17  1  0
 17 18  2  0
 17 22  1  0
 18 19  1  0
 19 20  2  0
 19 21  1  0
 23 24  1  0
 23 25  1  0
 25 26  1  0
 25 27  1  0
 27 28  1  0
M  END
>  <Gold.Gold.Protein.RotatedWaterAtoms>  (545) 


>  <Gold.Id.Protein>  (545) 


>  <Gold.PLP.Chemscore.CHOScore>  (545) 
0.6084

>  <Gold.PLP.Chemscore.Hbond>  (545) 
3.3120

>  <Gold.PLP.Chemscore.Internal.Correction>  (545) 
0.4656

>  <Gold.PLP.Chemscore.Metal>  (545) 
0.0000

>  <Gold.PLP.Fitness>  (545) 
65.5496

>  <Gold.PLP.PLP>  (545) 
-56.9334

>  <Gold.PLP.ligand.clash>  (545) 
2.0319

>  <Gold.PLP.ligand.torsion>  (545) 
0.7894

>  <Gold.PLP.part.buried>  (545) 
-8.6806

>  <Gold.PLP.part.hbond>  (545) 
-5.7543

>  <Gold.PLP.part.metal>  (545) 
0.0000

>  <Gold.PLP.part.nonpolar>  (545) 
-42.9814

>  <Gold.PLP.part.repulsive>  (545) 
0.1408

>  <Gold.Protein.RotatedAtoms>  (545) 


>  <Gold.Protein.RotatedTorsions>  (545) 


>  <Gold.Protein.RotatedWaterAtoms>  (545) 


>  <Gold.Version>  (545) 
5.3.0

>  <PLP.Chemscore.CHOScore>  (545) 


>  <PLP.Chemscore.Hbond>  (545) 


>  <PLP.Chemscore.Internal.Correction>  (545) 


>  <PLP.Chemscore.Metal>  (545) 


>  <PLP.Fitness>  (545) 


>  <PLP.PLP>  (545) 


>  <PLP.ligand.clash>  (545) 


>  <PLP.ligand.torsion>  (545) 


>  <PLP.part.buried>  (545) 


>  <PLP.part.hbond>  (545) 


>  <PLP.part.metal>  (545) 


>  <PLP.part.nonpolar>  (545) 


>  <PLP.part.repulsive>  (545) 


>  <Version>  (545) 


$$$$
3545|Compound_2159|Compounds_3D_F|sdf|633|dock8|1
     RDKit          3D

 28 30  0  0  0  0  0  0  0  0999 V2000
  -11.0159  -22.1253   12.1629 O   0  0  0  0  0  0  0  0  0  0  0  0
  -10.9265  -20.9608   11.4805 C   0  0  0  0  0  0  0  0  0  0  0  0
  -11.9322  -20.5835   10.5539 C   0  0  0  0  0  0  0  0  0  0  0  0
  -12.9949  -21.3504   10.3186 N   0  0  0  0  0  0  0  0  0  0  0  0
  -13.9002  -20.9566    9.4504 C   0  0  0  0  0  0  0  0  0  0  0  0
  -13.7582  -19.7441    8.7744 C   0  0  0  0  0  0  0  0  0  0  0  0
  -12.7158  -18.9712    8.9911 N   0  0  0  0  0  0  0  0  0  0  0  0
  -11.7838  -19.3519    9.8687 C   0  0  0  0  0  0  0  0  0  0  0  0
  -10.7066  -18.5986   10.1237 N   0  0  0  0  0  0  0  0  0  0  0  0
   -9.8019  -18.9988   10.9959 C   0  0  0  0  0  0  0  0  0  0  0  0
   -9.9030  -20.1451   11.6644 N   0  0  0  0  0  0  0  0  0  0  0  0
   -8.7013  -18.1891   11.2307 N   0  0  0  0  0  0  0  0  0  0  0  0
   -8.8746  -16.9213   11.6548 C   0  0  0  0  0  0  0  0  0  0  0  0
   -9.9967  -16.4880   11.8309 O   0  0  0  0  0  0  0  0  0  0  0  0
   -7.7003  -16.0592   11.9049 C   0  0  0  0  0  0  0  0  0  0  0  0
   -7.8662  -14.6833   12.0804 C   0  0  0  0  0  0  0  0  0  0  0  0
   -6.7656  -13.8845   12.3133 C   0  0  0  0  0  0  0  0  0  0  0  0
   -5.5014  -14.4430   12.3729 C   0  0  0  0  0  0  0  0  0  0  0  0
   -5.3305  -15.8049   12.2003 C   0  0  0  0  0  0  0  0  0  0  0  0
   -6.4231  -16.6162   11.9725 C   0  0  0  0  0  0  0  0  0  0  0  0
   -3.9497  -16.4043   12.2675 C   0  0  0  0  0  0  0  0  0  0  0  0
   -6.9418  -12.4001   12.5019 C   0  0  0  0  0  0  0  0  0  0  0  0
  -15.1035  -21.8231    9.1830 C   0  0  0  0  0  0  0  0  0  0  0  0
  -14.9957  -23.0340    9.9334 O   0  0  0  0  0  0  0  0  0  0  0  0
  -15.1731  -22.1521    7.6903 C   0  0  0  0  0  0  0  0  0  0  0  0
  -16.4545  -22.7038    7.3831 O   0  0  0  0  0  0  0  0  0  0  0  0
  -14.0834  -23.1681    7.3404 C   0  0  0  0  0  0  0  0  0  0  0  0
  -14.3982  -24.4286    7.9349 O   0  0  0  0  0  0  0  0  0  0  0  0
  1  2  1  0
  2  3  2  0
  2 11  1  0
  3  4  1  0
  3  8  1  0
  4  5  2  0
  5  6  1  0
  5 23  1  0
  6  7  2  0
  7  8  1  0
  8  9  2  0
  9 10  1  0
 10 11  2  0
 10 12  1  0
 12 13  1  0
 13 14  2  0
 13 15  1  0
 15 16  2  0
 15 20  1  0
 16 17  1  0
 17 18  2  0
 17 22  1  0
 18 19  1  0
 19 20  2  0
 19 21  1  0
 23 24  1  0
 23 25  1  0
 25 26  1  0
 25 27  1  0
 27 28  1  0
M  END
>  <Gold.Gold.Protein.RotatedWaterAtoms>  (546) 


>  <Gold.Id.Protein>  (546) 


>  <Gold.PLP.Chemscore.CHOScore>  (546) 
0.7459

>  <Gold.PLP.Chemscore.Hbond>  (546) 
2.8640

>  <Gold.PLP.Chemscore.Internal.Correction>  (546) 
0.4656

>  <Gold.PLP.Chemscore.Metal>  (546) 
0.0000

>  <Gold.PLP.Fitness>  (546) 
69.0662

>  <Gold.PLP.PLP>  (546) 
-59.4561

>  <Gold.PLP.ligand.clash>  (546) 
0.0000

>  <Gold.PLP.ligand.torsion>  (546) 
0.8426

>  <Gold.PLP.part.buried>  (546) 
-11.2579

>  <Gold.PLP.part.hbond>  (546) 
-3.4012

>  <Gold.PLP.part.metal>  (546) 
0.0000

>  <Gold.PLP.part.nonpolar>  (546) 
-46.0927

>  <Gold.PLP.part.repulsive>  (546) 
0.1367

>  <Gold.Protein.RotatedAtoms>  (546) 


>  <Gold.Protein.RotatedTorsions>  (546) 


>  <Gold.Protein.RotatedWaterAtoms>  (546) 


>  <Gold.Version>  (546) 
5.3.0

>  <PLP.Chemscore.CHOScore>  (546) 


>  <PLP.Chemscore.Hbond>  (546) 


>  <PLP.Chemscore.Internal.Correction>  (546) 


>  <PLP.Chemscore.Metal>  (546) 


>  <PLP.Fitness>  (546) 


>  <PLP.PLP>  (546) 


>  <PLP.ligand.clash>  (546) 


>  <PLP.ligand.torsion>  (546) 


>  <PLP.part.buried>  (546) 


>  <PLP.part.hbond>  (546) 


>  <PLP.part.metal>  (546) 


>  <PLP.part.nonpolar>  (546) 


>  <PLP.part.repulsive>  (546) 


>  <Version>  (546) 


$$$$
3546|Compound_2159|Compounds_3D_F|sdf|633|dock9|1
     RDKit          3D

 28 30  0  0  0  0  0  0  0  0999 V2000
   -8.7798  -19.9150    9.6386 O   0  0  0  0  0  0  0  0  0  0  0  0
   -9.2468  -18.9106   10.4149 C   0  0  0  0  0  0  0  0  0  0  0  0
  -10.5180  -19.0051   11.0373 C   0  0  0  0  0  0  0  0  0  0  0  0
  -11.2973  -20.0741   10.8859 N   0  0  0  0  0  0  0  0  0  0  0  0
  -12.4674  -20.1144   11.4839 C   0  0  0  0  0  0  0  0  0  0  0  0
  -12.8996  -19.0491   12.2750 C   0  0  0  0  0  0  0  0  0  0  0  0
  -12.1460  -17.9830   12.4375 N   0  0  0  0  0  0  0  0  0  0  0  0
  -10.9538  -17.9207   11.8390 C   0  0  0  0  0  0  0  0  0  0  0  0
  -10.1512  -16.8577   11.9760 N   0  0  0  0  0  0  0  0  0  0  0  0
   -8.9784  -16.8231   11.3739 C   0  0  0  0  0  0  0  0  0  0  0  0
   -8.5280  -17.8198   10.6156 N   0  0  0  0  0  0  0  0  0  0  0  0
   -8.1780  -15.7036   11.5416 N   0  0  0  0  0  0  0  0  0  0  0  0
   -8.7411  -14.4881   11.6928 C   0  0  0  0  0  0  0  0  0  0  0  0
   -9.9514  -14.3740   11.6818 O   0  0  0  0  0  0  0  0  0  0  0  0
   -7.8866  -13.2954   11.8717 C   0  0  0  0  0  0  0  0  0  0  0  0
   -8.4176  -12.0180   11.6780 C   0  0  0  0  0  0  0  0  0  0  0  0
   -7.6142  -10.9090   11.8465 C   0  0  0  0  0  0  0  0  0  0  0  0
   -6.2869  -11.0603   12.2058 C   0  0  0  0  0  0  0  0  0  0  0  0
   -5.7551  -12.3227   12.3994 C   0  0  0  0  0  0  0  0  0  0  0  0
   -6.5488  -13.4400   12.2400 C   0  0  0  0  0  0  0  0  0  0  0  0
   -4.3084  -12.4776   12.7913 C   0  0  0  0  0  0  0  0  0  0  0  0
   -8.1843   -9.5302   11.6373 C   0  0  0  0  0  0  0  0  0  0  0  0
  -13.3504  -21.3233   11.3138 C   0  0  0  0  0  0  0  0  0  0  0  0
  -12.7003  -22.4702   11.8644 O   0  0  0  0  0  0  0  0  0  0  0  0
  -13.6179  -21.5538    9.8250 C   0  0  0  0  0  0  0  0  0  0  0  0
  -12.3757  -21.6990    9.1345 O   0  0  0  0  0  0  0  0  0  0  0  0
  -14.3825  -20.3579    9.2528 C   0  0  0  0  0  0  0  0  0  0  0  0
  -14.6970  -20.6053    7.8812 O   0  0  0  0  0  0  0  0  0  0  0  0
  1  2  1  0
  2  3  2  0
  2 11  1  0
  3  4  1  0
  3  8  1  0
  4  5  2  0
  5  6  1  0
  5 23  1  0
  6  7  2  0
  7  8  1  0
  8  9  2  0
  9 10  1  0
 10 11  2  0
 10 12  1  0
 12 13  1  0
 13 14  2  0
 13 15  1  0
 15 16  2  0
 15 20  1  0
 16 17  1  0
 17 18  2  0
 17 22  1  0
 18 19  1  0
 19 20  2  0
 19 21  1  0
 23 24  1  0
 23 25  1  0
 25 26  1  0
 25 27  1  0
 27 28  1  0
M  END
>  <Gold.Gold.Protein.RotatedWaterAtoms>  (547) 


>  <Gold.Id.Protein>  (547) 


>  <Gold.PLP.Chemscore.CHOScore>  (547) 
0.9926

>  <Gold.PLP.Chemscore.Hbond>  (547) 
2.4104

>  <Gold.PLP.Chemscore.Internal.Correction>  (547) 
0.4656

>  <Gold.PLP.Chemscore.Metal>  (547) 
0.0000

>  <Gold.PLP.Fitness>  (547) 
72.4016

>  <Gold.PLP.PLP>  (547) 
-62.4902

>  <Gold.PLP.ligand.clash>  (547) 
0.0000

>  <Gold.PLP.ligand.torsion>  (547) 
0.3815

>  <Gold.PLP.part.buried>  (547) 
-3.7734

>  <Gold.PLP.part.hbond>  (547) 
-3.3134

>  <Gold.PLP.part.metal>  (547) 
0.0000

>  <Gold.PLP.part.nonpolar>  (547) 
-56.1678

>  <Gold.PLP.part.repulsive>  (547) 
0.2724

>  <Gold.Protein.RotatedAtoms>  (547) 


>  <Gold.Protein.RotatedTorsions>  (547) 


>  <Gold.Protein.RotatedWaterAtoms>  (547) 


>  <Gold.Version>  (547) 
5.3.0

>  <PLP.Chemscore.CHOScore>  (547) 


>  <PLP.Chemscore.Hbond>  (547) 


>  <PLP.Chemscore.Internal.Correction>  (547) 


>  <PLP.Chemscore.Metal>  (547) 


>  <PLP.Fitness>  (547) 


>  <PLP.PLP>  (547) 


>  <PLP.ligand.clash>  (547) 


>  <PLP.ligand.torsion>  (547) 


>  <PLP.part.buried>  (547) 


>  <PLP.part.hbond>  (547) 


>  <PLP.part.metal>  (547) 


>  <PLP.part.nonpolar>  (547) 


>  <PLP.part.repulsive>  (547) 


>  <Version>  (547) 


$$$$
3547|Compound_2160|Compounds_3D_F|sdf|634|dock1|1
     RDKit          3D

 20 21  0  0  0  0  0  0  0  0999 V2000
   -9.1810  -17.6114   11.5673 N   0  0  0  0  0  0  0  0  0  0  0  0
   -9.0372  -16.3675   12.0666 C   0  0  0  0  0  0  0  0  0  0  0  0
  -10.0151  -15.7368   12.4165 O   0  0  0  0  0  0  0  0  0  0  0  0
   -7.6897  -15.7716   12.1884 C   0  0  0  0  0  0  0  0  0  0  0  0
   -7.5417  -14.3870   12.2836 C   0  0  0  0  0  0  0  0  0  0  0  0
   -6.2824  -13.8371   12.3969 C   0  0  0  0  0  0  0  0  0  0  0  0
   -5.1661  -14.6553   12.4153 C   0  0  0  0  0  0  0  0  0  0  0  0
   -5.3057  -16.0287   12.3205 C   0  0  0  0  0  0  0  0  0  0  0  0
   -6.5602  -16.5918   12.2137 C   0  0  0  0  0  0  0  0  0  0  0  0
   -4.0840  -16.9111   12.3423 C   0  0  0  0  0  0  0  0  0  0  0  0
   -6.1205  -12.3422   12.5005 C   0  0  0  0  0  0  0  0  0  0  0  0
  -10.4517  -18.1722   11.4474 C   0  0  0  0  0  0  0  0  0  0  0  0
  -11.2529  -18.5166   12.4207 N   0  0  0  0  0  0  0  0  0  0  0  0
  -12.2886  -18.9768   11.9992 O   0  0  0  0  0  0  0  0  0  0  0  0
  -12.3134  -19.0011   10.6592 C   0  0  0  0  0  0  0  0  0  0  0  0
  -11.1370  -18.4792   10.2414 C   0  0  0  0  0  0  0  0  0  0  0  0
  -13.4356  -19.5044    9.7876 C   0  0  0  0  0  0  0  0  0  0  0  0
  -13.9425  -18.3652    8.9019 C   0  0  0  0  0  0  0  0  0  0  0  0
  -12.9239  -20.6465    8.9075 C   0  0  0  0  0  0  0  0  0  0  0  0
  -14.5779  -20.0121   10.6694 C   0  0  0  0  0  0  0  0  0  0  0  0
  1  2  1  0
  1 12  1  0
  2  3  2  0
  2  4  1  0
  4  5  2  0
  4  9  1  0
  5  6  1  0
  6  7  2  0
  6 11  1  0
  7  8  1  0
  8  9  2  0
  8 10  1  0
 12 13  2  0
 12 16  1  0
 13 14  1  0
 14 15  1  0
 15 16  2  0
 15 17  1  0
 17 18  1  0
 17 19  1  0
 17 20  1  0
M  END
>  <Gold.Gold.Protein.RotatedWaterAtoms>  (548) 


>  <Gold.Id.Protein>  (548) 


>  <Gold.PLP.Chemscore.CHOScore>  (548) 
0.0000

>  <Gold.PLP.Chemscore.Hbond>  (548) 
2.0000

>  <Gold.PLP.Chemscore.Internal.Correction>  (548) 
0.0024

>  <Gold.PLP.Chemscore.Metal>  (548) 
0.0000

>  <Gold.PLP.Fitness>  (548) 
59.1962

>  <Gold.PLP.PLP>  (548) 
-54.8497

>  <Gold.PLP.ligand.clash>  (548) 
0.0000

>  <Gold.PLP.ligand.torsion>  (548) 
0.8280

>  <Gold.PLP.part.buried>  (548) 
-8.6742

>  <Gold.PLP.part.hbond>  (548) 
-1.5942

>  <Gold.PLP.part.metal>  (548) 
0.0000

>  <Gold.PLP.part.nonpolar>  (548) 
-47.0840

>  <Gold.PLP.part.repulsive>  (548) 
0.5509

>  <Gold.Protein.RotatedAtoms>  (548) 


>  <Gold.Protein.RotatedTorsions>  (548) 


>  <Gold.Protein.RotatedWaterAtoms>  (548) 


>  <Gold.Version>  (548) 
5.3.0

>  <PLP.Chemscore.CHOScore>  (548) 


>  <PLP.Chemscore.Hbond>  (548) 


>  <PLP.Chemscore.Internal.Correction>  (548) 


>  <PLP.Chemscore.Metal>  (548) 


>  <PLP.Fitness>  (548) 


>  <PLP.PLP>  (548) 


>  <PLP.ligand.clash>  (548) 


>  <PLP.ligand.torsion>  (548) 


>  <PLP.part.buried>  (548) 


>  <PLP.part.hbond>  (548) 


>  <PLP.part.metal>  (548) 


>  <PLP.part.nonpolar>  (548) 


>  <PLP.part.repulsive>  (548) 


>  <Version>  (548) 


$$$$
3548|Compound_2160|Compounds_3D_F|sdf|634|dock2|1
     RDKit          3D

 20 21  0  0  0  0  0  0  0  0999 V2000
   -9.1289  -17.5806   11.5788 N   0  0  0  0  0  0  0  0  0  0  0  0
   -8.9618  -16.3115   12.0015 C   0  0  0  0  0  0  0  0  0  0  0  0
   -9.9297  -15.6326   12.2823 O   0  0  0  0  0  0  0  0  0  0  0  0
   -7.6011  -15.7465   12.1233 C   0  0  0  0  0  0  0  0  0  0  0  0
   -6.4889  -16.5897   12.1146 C   0  0  0  0  0  0  0  0  0  0  0  0
   -5.2222  -16.0568   12.2287 C   0  0  0  0  0  0  0  0  0  0  0  0
   -5.0527  -14.6888   12.3525 C   0  0  0  0  0  0  0  0  0  0  0  0
   -6.1510  -13.8473   12.3628 C   0  0  0  0  0  0  0  0  0  0  0  0
   -7.4230  -14.3669   12.2425 C   0  0  0  0  0  0  0  0  0  0  0  0
   -5.9558  -12.3588   12.4974 C   0  0  0  0  0  0  0  0  0  0  0  0
   -4.0199  -16.9656   12.2188 C   0  0  0  0  0  0  0  0  0  0  0  0
  -10.4119  -18.1125   11.4588 C   0  0  0  0  0  0  0  0  0  0  0  0
  -11.2552  -18.3547   12.4273 N   0  0  0  0  0  0  0  0  0  0  0  0
  -12.2904  -18.8173   12.0071 O   0  0  0  0  0  0  0  0  0  0  0  0
  -12.2718  -18.9482   10.6732 C   0  0  0  0  0  0  0  0  0  0  0  0
  -11.0664  -18.4955   10.2573 C   0  0  0  0  0  0  0  0  0  0  0  0
  -13.3798  -19.4874    9.8050 C   0  0  0  0  0  0  0  0  0  0  0  0
  -13.9067  -18.3720    8.9008 C   0  0  0  0  0  0  0  0  0  0  0  0
  -12.8410  -20.6313    8.9436 C   0  0  0  0  0  0  0  0  0  0  0  0
  -14.5149  -20.0059   10.6899 C   0  0  0  0  0  0  0  0  0  0  0  0
  1  2  1  0
  1 12  1  0
  2  3  2  0
  2  4  1  0
  4  5  2  0
  4  9  1  0
  5  6  1  0
  6  7  2  0
  6 11  1  0
  7  8  1  0
  8  9  2  0
  8 10  1  0
 12 13  2  0
 12 16  1  0
 13 14  1  0
 14 15  1  0
 15 16  2  0
 15 17  1  0
 17 18  1  0
 17 19  1  0
 17 20  1  0
M  END
>  <Gold.Gold.Protein.RotatedWaterAtoms>  (549) 


>  <Gold.Id.Protein>  (549) 


>  <Gold.PLP.Chemscore.CHOScore>  (549) 
0.0000

>  <Gold.PLP.Chemscore.Hbond>  (549) 
1.9040

>  <Gold.PLP.Chemscore.Internal.Correction>  (549) 
0.0024

>  <Gold.PLP.Chemscore.Metal>  (549) 
0.0000

>  <Gold.PLP.Fitness>  (549) 
59.2105

>  <Gold.PLP.PLP>  (549) 
-55.1453

>  <Gold.PLP.ligand.clash>  (549) 
0.0000

>  <Gold.PLP.ligand.torsion>  (549) 
0.8247

>  <Gold.PLP.part.buried>  (549) 
-7.9019

>  <Gold.PLP.part.hbond>  (549) 
-1.4715

>  <Gold.PLP.part.metal>  (549) 
0.0000

>  <Gold.PLP.part.nonpolar>  (549) 
-46.9088

>  <Gold.PLP.part.repulsive>  (549) 
0.2336

>  <Gold.Protein.RotatedAtoms>  (549) 


>  <Gold.Protein.RotatedTorsions>  (549) 


>  <Gold.Protein.RotatedWaterAtoms>  (549) 


>  <Gold.Version>  (549) 
5.3.0

>  <PLP.Chemscore.CHOScore>  (549) 


>  <PLP.Chemscore.Hbond>  (549) 


>  <PLP.Chemscore.Internal.Correction>  (549) 


>  <PLP.Chemscore.Metal>  (549) 


>  <PLP.Fitness>  (549) 


>  <PLP.PLP>  (549) 


>  <PLP.ligand.clash>  (549) 


>  <PLP.ligand.torsion>  (549) 


>  <PLP.part.buried>  (549) 


>  <PLP.part.hbond>  (549) 


>  <PLP.part.metal>  (549) 


>  <PLP.part.nonpolar>  (549) 


>  <PLP.part.repulsive>  (549) 


>  <Version>  (549) 


$$$$
3549|Compound_2160|Compounds_3D_F|sdf|634|dock3|1
     RDKit          3D

 20 21  0  0  0  0  0  0  0  0999 V2000
   -9.2410  -17.7659   11.5012 N   0  0  0  0  0  0  0  0  0  0  0  0
   -8.9674  -16.5116   11.9124 C   0  0  0  0  0  0  0  0  0  0  0  0
   -9.8741  -15.7554   12.1999 O   0  0  0  0  0  0  0  0  0  0  0  0
   -7.5643  -16.0570   12.0137 C   0  0  0  0  0  0  0  0  0  0  0  0
   -6.5205  -16.9791   11.9229 C   0  0  0  0  0  0  0  0  0  0  0  0
   -5.2139  -16.5490   12.0181 C   0  0  0  0  0  0  0  0  0  0  0  0
   -4.9365  -15.2058   12.2043 C   0  0  0  0  0  0  0  0  0  0  0  0
   -5.9666  -14.2865   12.2961 C   0  0  0  0  0  0  0  0  0  0  0  0
   -7.2776  -14.7027   12.1954 C   0  0  0  0  0  0  0  0  0  0  0  0
   -5.6541  -12.8259   12.4980 C   0  0  0  0  0  0  0  0  0  0  0  0
   -4.0854  -17.5431   11.9197 C   0  0  0  0  0  0  0  0  0  0  0  0
  -10.5639  -18.1939   11.4006 C   0  0  0  0  0  0  0  0  0  0  0  0
  -11.5595  -17.8568   12.1772 N   0  0  0  0  0  0  0  0  0  0  0  0
  -12.5880  -18.3932   11.8359 O   0  0  0  0  0  0  0  0  0  0  0  0
  -12.4085  -19.1769   10.7634 C   0  0  0  0  0  0  0  0  0  0  0  0
  -11.1008  -19.0808   10.4292 C   0  0  0  0  0  0  0  0  0  0  0  0
  -13.4592  -19.9992   10.0620 C   0  0  0  0  0  0  0  0  0  0  0  0
  -12.8035  -20.8260    8.9549 C   0  0  0  0  0  0  0  0  0  0  0  0
  -14.1298  -20.9353   11.0693 C   0  0  0  0  0  0  0  0  0  0  0  0
  -14.5098  -19.0702    9.4507 C   0  0  0  0  0  0  0  0  0  0  0  0
  1  2  1  0
  1 12  1  0
  2  3  2  0
  2  4  1  0
  4  5  2  0
  4  9  1  0
  5  6  1  0
  6  7  2  0
  6 11  1  0
  7  8  1  0
  8  9  2  0
  8 10  1  0
 12 13  2  0
 12 16  1  0
 13 14  1  0
 14 15  1  0
 15 16  2  0
 15 17  1  0
 17 18  1  0
 17 19  1  0
 17 20  1  0
M  END
>  <Gold.Gold.Protein.RotatedWaterAtoms>  (550) 


>  <Gold.Id.Protein>  (550) 


>  <Gold.PLP.Chemscore.CHOScore>  (550) 
0.0000

>  <Gold.PLP.Chemscore.Hbond>  (550) 
1.8640

>  <Gold.PLP.Chemscore.Internal.Correction>  (550) 
0.0024

>  <Gold.PLP.Chemscore.Metal>  (550) 
0.0000

>  <Gold.PLP.Fitness>  (550) 
57.0423

>  <Gold.PLP.PLP>  (550) 
-52.1933

>  <Gold.PLP.ligand.clash>  (550) 
0.0000

>  <Gold.PLP.ligand.torsion>  (550) 
0.3727

>  <Gold.PLP.part.buried>  (550) 
-8.4188

>  <Gold.PLP.part.hbond>  (550) 
-2.5513

>  <Gold.PLP.part.metal>  (550) 
0.0000

>  <Gold.PLP.part.nonpolar>  (550) 
-41.4104

>  <Gold.PLP.part.repulsive>  (550) 
0.2219

>  <Gold.Protein.RotatedAtoms>  (550) 


>  <Gold.Protein.RotatedTorsions>  (550) 


>  <Gold.Protein.RotatedWaterAtoms>  (550) 


>  <Gold.Version>  (550) 
5.3.0

>  <PLP.Chemscore.CHOScore>  (550) 


>  <PLP.Chemscore.Hbond>  (550) 


>  <PLP.Chemscore.Internal.Correction>  (550) 


>  <PLP.Chemscore.Metal>  (550) 


>  <PLP.Fitness>  (550) 


>  <PLP.PLP>  (550) 


>  <PLP.ligand.clash>  (550) 


>  <PLP.ligand.torsion>  (550) 


>  <PLP.part.buried>  (550) 


>  <PLP.part.hbond>  (550) 


>  <PLP.part.metal>  (550) 


>  <PLP.part.nonpolar>  (550) 


>  <PLP.part.repulsive>  (550) 


>  <Version>  (550) 


$$$$
3550|Compound_2161|Compounds_3D_F|sdf|635|dock1|1
     RDKit          3D

 30 33  0  0  0  0  0  0  0  0999 V2000
   -8.6424  -19.5792    7.8064 O   0  0  0  0  0  0  0  0  0  0  0  0
   -8.9300  -19.1691    9.0652 C   0  0  0  0  0  0  0  0  0  0  0  0
   -8.3681  -18.0768    9.5657 N   0  0  0  0  0  0  0  0  0  0  0  0
   -8.6434  -17.6661   10.7968 C   0  0  0  0  0  0  0  0  0  0  0  0
   -9.4817  -18.3158   11.5869 N   0  0  0  0  0  0  0  0  0  0  0  0
  -10.0877  -19.4201   11.1658 C   0  0  0  0  0  0  0  0  0  0  0  0
   -9.8315  -19.8879    9.8655 C   0  0  0  0  0  0  0  0  0  0  0  0
  -10.5671  -21.0134    9.6936 N   0  0  0  0  0  0  0  0  0  0  0  0
  -11.2423  -21.2593   10.7786 C   0  0  0  0  0  0  0  0  0  0  0  0
  -10.9840  -20.3017   11.7156 N   0  0  0  0  0  0  0  0  0  0  0  0
  -11.5520  -20.2324   13.0632 C   0  0  0  0  0  0  0  0  0  0  0  0
  -10.9504  -21.2317   13.9151 O   0  0  0  0  0  0  0  0  0  0  0  0
  -11.8814  -21.4150   15.0039 C   0  0  0  0  0  0  0  0  0  0  0  0
  -11.6406  -22.7615   15.6886 C   0  0  0  0  0  0  0  0  0  0  0  0
  -10.3015  -23.1924   15.4345 O   0  0  0  0  0  0  0  0  0  0  0  0
  -13.2757  -21.3895   14.3389 C   0  0  0  0  0  0  0  0  0  0  0  0
  -14.2188  -20.7229   15.1810 O   0  0  0  0  0  0  0  0  0  0  0  0
  -13.0549  -20.5898   13.0331 C   0  0  0  0  0  0  0  0  0  0  0  0
  -13.8551  -19.4061   13.0288 O   0  0  0  0  0  0  0  0  0  0  0  0
   -8.0281  -16.5153   11.2735 N   0  0  0  0  0  0  0  0  0  0  0  0
   -8.4735  -15.3030   10.8863 C   0  0  0  0  0  0  0  0  0  0  0  0
   -9.4130  -15.2177   10.1192 O   0  0  0  0  0  0  0  0  0  0  0  0
   -7.8195  -14.0790   11.3932 C   0  0  0  0  0  0  0  0  0  0  0  0
   -8.4519  -12.8416   11.2646 C   0  0  0  0  0  0  0  0  0  0  0  0
   -7.8359  -11.7017   11.7395 C   0  0  0  0  0  0  0  0  0  0  0  0
   -6.5931  -11.7849   12.3432 C   0  0  0  0  0  0  0  0  0  0  0  0
   -5.9604  -13.0085   12.4740 C   0  0  0  0  0  0  0  0  0  0  0  0
   -6.5688  -14.1560   12.0081 C   0  0  0  0  0  0  0  0  0  0  0  0
   -4.6075  -13.0877   13.1314 C   0  0  0  0  0  0  0  0  0  0  0  0
   -8.5171  -10.3654   11.6015 C   0  0  0  0  0  0  0  0  0  0  0  0
  1  2  1  0
  2  3  2  0
  2  7  1  0
  3  4  1  0
  4  5  2  0
  4 20  1  0
  5  6  1  0
  6  7  2  0
  6 10  1  0
  7  8  1  0
  8  9  2  0
  9 10  1  0
 10 11  1  0
 11 12  1  0
 11 18  1  0
 12 13  1  0
 13 14  1  0
 13 16  1  0
 14 15  1  0
 16 17  1  0
 16 18  1  0
 18 19  1  0
 20 21  1  0
 21 22  2  0
 21 23  1  0
 23 24  2  0
 23 28  1  0
 24 25  1  0
 25 26  2  0
 25 30  1  0
 26 27  1  0
 27 28  2  0
 27 29  1  0
M  END
>  <Gold.Gold.Protein.RotatedWaterAtoms>  (551) 


>  <Gold.Id.Protein>  (551) 


>  <Gold.PLP.Chemscore.CHOScore>  (551) 
0.0000

>  <Gold.PLP.Chemscore.Hbond>  (551) 
2.7520

>  <Gold.PLP.Chemscore.Internal.Correction>  (551) 
0.4716

>  <Gold.PLP.Chemscore.Metal>  (551) 
0.0000

>  <Gold.PLP.Fitness>  (551) 
67.0195

>  <Gold.PLP.PLP>  (551) 
-61.8945

>  <Gold.PLP.ligand.clash>  (551) 
0.0000

>  <Gold.PLP.ligand.torsion>  (551) 
1.8013

>  <Gold.PLP.part.buried>  (551) 
-7.1161

>  <Gold.PLP.part.hbond>  (551) 
-5.0784

>  <Gold.PLP.part.metal>  (551) 
0.0000

>  <Gold.PLP.part.nonpolar>  (551) 
-52.4599

>  <Gold.PLP.part.repulsive>  (551) 
1.1596

>  <Gold.Protein.RotatedAtoms>  (551) 


>  <Gold.Protein.RotatedTorsions>  (551) 


>  <Gold.Protein.RotatedWaterAtoms>  (551) 


>  <Gold.Version>  (551) 
5.3.0

>  <PLP.Chemscore.CHOScore>  (551) 


>  <PLP.Chemscore.Hbond>  (551) 


>  <PLP.Chemscore.Internal.Correction>  (551) 


>  <PLP.Chemscore.Metal>  (551) 


>  <PLP.Fitness>  (551) 


>  <PLP.PLP>  (551) 


>  <PLP.ligand.clash>  (551) 


>  <PLP.ligand.torsion>  (551) 


>  <PLP.part.buried>  (551) 


>  <PLP.part.hbond>  (551) 


>  <PLP.part.metal>  (551) 


>  <PLP.part.nonpolar>  (551) 


>  <PLP.part.repulsive>  (551) 


>  <Version>  (551) 


$$$$
3551|Compound_2161|Compounds_3D_F|sdf|635|dock2|1
     RDKit          3D

 30 33  0  0  0  0  0  0  0  0999 V2000
   -8.3144  -19.3760    7.5004 O   0  0  0  0  0  0  0  0  0  0  0  0
   -8.6486  -18.9746    8.7506 C   0  0  0  0  0  0  0  0  0  0  0  0
   -8.1127  -17.8808    9.2756 N   0  0  0  0  0  0  0  0  0  0  0  0
   -8.4337  -17.4786   10.4985 C   0  0  0  0  0  0  0  0  0  0  0  0
   -9.2939  -18.1386   11.2558 N   0  0  0  0  0  0  0  0  0  0  0  0
   -9.8765  -19.2452   10.8084 C   0  0  0  0  0  0  0  0  0  0  0  0
   -9.5718  -19.7043    9.5155 C   0  0  0  0  0  0  0  0  0  0  0  0
  -10.2923  -20.8343    9.3126 N   0  0  0  0  0  0  0  0  0  0  0  0
  -11.0029  -21.0909   10.3723 C   0  0  0  0  0  0  0  0  0  0  0  0
  -10.7846  -20.1363   11.3224 N   0  0  0  0  0  0  0  0  0  0  0  0
  -11.3994  -20.0782   12.6498 C   0  0  0  0  0  0  0  0  0  0  0  0
  -10.9681  -21.1980   13.4538 O   0  0  0  0  0  0  0  0  0  0  0  0
  -11.9630  -21.3269   14.4928 C   0  0  0  0  0  0  0  0  0  0  0  0
  -11.9255  -22.7332   15.0934 C   0  0  0  0  0  0  0  0  0  0  0  0
  -10.5949  -23.0334   15.5210 O   0  0  0  0  0  0  0  0  0  0  0  0
  -13.3114  -21.0802   13.7801 C   0  0  0  0  0  0  0  0  0  0  0  0
  -14.1996  -20.3512   14.6301 O   0  0  0  0  0  0  0  0  0  0  0  0
  -12.9326  -20.2361   12.5404 C   0  0  0  0  0  0  0  0  0  0  0  0
  -13.5756  -18.9609   12.5865 O   0  0  0  0  0  0  0  0  0  0  0  0
   -7.8441  -16.3258   11.0019 N   0  0  0  0  0  0  0  0  0  0  0  0
   -8.4085  -15.1235   10.7698 C   0  0  0  0  0  0  0  0  0  0  0  0
   -9.4329  -15.0488   10.1191 O   0  0  0  0  0  0  0  0  0  0  0  0
   -7.7818  -13.8973   11.3053 C   0  0  0  0  0  0  0  0  0  0  0  0
   -6.5286  -13.9597   11.9161 C   0  0  0  0  0  0  0  0  0  0  0  0
   -5.9485  -12.8111   12.4148 C   0  0  0  0  0  0  0  0  0  0  0  0
   -6.6079  -11.5987   12.3091 C   0  0  0  0  0  0  0  0  0  0  0  0
   -7.8507  -11.5296   11.7049 C   0  0  0  0  0  0  0  0  0  0  0  0
   -8.4384  -12.6702   11.1973 C   0  0  0  0  0  0  0  0  0  0  0  0
   -8.5603  -10.2053   11.5962 C   0  0  0  0  0  0  0  0  0  0  0  0
   -4.5959  -12.8767   13.0742 C   0  0  0  0  0  0  0  0  0  0  0  0
  1  2  1  0
  2  3  2  0
  2  7  1  0
  3  4  1  0
  4  5  2  0
  4 20  1  0
  5  6  1  0
  6  7  2  0
  6 10  1  0
  7  8  1  0
  8  9  2  0
  9 10  1  0
 10 11  1  0
 11 12  1  0
 11 18  1  0
 12 13  1  0
 13 14  1  0
 13 16  1  0
 14 15  1  0
 16 17  1  0
 16 18  1  0
 18 19  1  0
 20 21  1  0
 21 22  2  0
 21 23  1  0
 23 24  2  0
 23 28  1  0
 24 25  1  0
 25 26  2  0
 25 30  1  0
 26 27  1  0
 27 28  2  0
 27 29  1  0
M  END
>  <Gold.Gold.Protein.RotatedWaterAtoms>  (552) 


>  <Gold.Id.Protein>  (552) 


>  <Gold.PLP.Chemscore.CHOScore>  (552) 
0.0000

>  <Gold.PLP.Chemscore.Hbond>  (552) 
3.0000

>  <Gold.PLP.Chemscore.Internal.Correction>  (552) 
0.4624

>  <Gold.PLP.Chemscore.Metal>  (552) 
0.0000

>  <Gold.PLP.Fitness>  (552) 
66.6332

>  <Gold.PLP.PLP>  (552) 
-59.0532

>  <Gold.PLP.ligand.clash>  (552) 
0.0000

>  <Gold.PLP.ligand.torsion>  (552) 
0.9412

>  <Gold.PLP.part.buried>  (552) 
-6.9002

>  <Gold.PLP.part.hbond>  (552) 
-4.3633

>  <Gold.PLP.part.metal>  (552) 
0.0000

>  <Gold.PLP.part.nonpolar>  (552) 
-49.5299

>  <Gold.PLP.part.repulsive>  (552) 
1.8883

>  <Gold.Protein.RotatedAtoms>  (552) 


>  <Gold.Protein.RotatedTorsions>  (552) 


>  <Gold.Protein.RotatedWaterAtoms>  (552) 


>  <Gold.Version>  (552) 
5.3.0

>  <PLP.Chemscore.CHOScore>  (552) 


>  <PLP.Chemscore.Hbond>  (552) 


>  <PLP.Chemscore.Internal.Correction>  (552) 


>  <PLP.Chemscore.Metal>  (552) 


>  <PLP.Fitness>  (552) 


>  <PLP.PLP>  (552) 


>  <PLP.ligand.clash>  (552) 


>  <PLP.ligand.torsion>  (552) 


>  <PLP.part.buried>  (552) 


>  <PLP.part.hbond>  (552) 


>  <PLP.part.metal>  (552) 


>  <PLP.part.nonpolar>  (552) 


>  <PLP.part.repulsive>  (552) 


>  <Version>  (552) 


$$$$
3552|Compound_2161|Compounds_3D_F|sdf|635|dock3|1
     RDKit          3D

 30 33  0  0  0  0  0  0  0  0999 V2000
   -8.1552  -19.7574    6.9351 O   0  0  0  0  0  0  0  0  0  0  0  0
   -8.2029  -19.3610    8.2298 C   0  0  0  0  0  0  0  0  0  0  0  0
   -8.7604  -20.1329    9.1533 N   0  0  0  0  0  0  0  0  0  0  0  0
   -8.8116  -19.7547   10.4239 C   0  0  0  0  0  0  0  0  0  0  0  0
   -8.3181  -18.5993   10.8371 N   0  0  0  0  0  0  0  0  0  0  0  0
   -7.7432  -17.7650    9.9783 C   0  0  0  0  0  0  0  0  0  0  0  0
   -7.6600  -18.1280    8.6231 C   0  0  0  0  0  0  0  0  0  0  0  0
   -7.0370  -17.1133    7.9752 N   0  0  0  0  0  0  0  0  0  0  0  0
   -6.7392  -16.1746    8.8259 C   0  0  0  0  0  0  0  0  0  0  0  0
   -7.1504  -16.5314   10.0770 N   0  0  0  0  0  0  0  0  0  0  0  0
   -6.9958  -15.7398   11.2988 C   0  0  0  0  0  0  0  0  0  0  0  0
   -8.2658  -15.1817   11.7012 O   0  0  0  0  0  0  0  0  0  0  0  0
   -7.9379  -14.0697   12.5625 C   0  0  0  0  0  0  0  0  0  0  0  0
   -9.1165  -13.0986   12.6493 C   0  0  0  0  0  0  0  0  0  0  0  0
  -10.2907  -13.8091   13.0492 O   0  0  0  0  0  0  0  0  0  0  0  0
   -6.7273  -13.3898   11.8848 C   0  0  0  0  0  0  0  0  0  0  0  0
   -5.8029  -12.9201   12.8685 O   0  0  0  0  0  0  0  0  0  0  0  0
   -6.0903  -14.5155   11.0361 C   0  0  0  0  0  0  0  0  0  0  0  0
   -4.7536  -14.7746   11.4691 O   0  0  0  0  0  0  0  0  0  0  0  0
   -9.4063  -20.6001   11.3521 N   0  0  0  0  0  0  0  0  0  0  0  0
  -10.4247  -20.1540   12.1148 C   0  0  0  0  0  0  0  0  0  0  0  0
  -10.8215  -19.0114   11.9905 O   0  0  0  0  0  0  0  0  0  0  0  0
  -11.0575  -21.0529   13.1019 C   0  0  0  0  0  0  0  0  0  0  0  0
  -10.4379  -22.2520   13.4566 C   0  0  0  0  0  0  0  0  0  0  0  0
  -11.0341  -23.0878   14.3788 C   0  0  0  0  0  0  0  0  0  0  0  0
  -12.2444  -22.7377   14.9519 C   0  0  0  0  0  0  0  0  0  0  0  0
  -12.8643  -21.5504   14.6048 C   0  0  0  0  0  0  0  0  0  0  0  0
  -12.2752  -20.7037   13.6882 C   0  0  0  0  0  0  0  0  0  0  0  0
  -14.1819  -21.1794   15.2336 C   0  0  0  0  0  0  0  0  0  0  0  0
  -10.3666  -24.3824   14.7628 C   0  0  0  0  0  0  0  0  0  0  0  0
  1  2  1  0
  2  3  2  0
  2  7  1  0
  3  4  1  0
  4  5  2  0
  4 20  1  0
  5  6  1  0
  6  7  2  0
  6 10  1  0
  7  8  1  0
  8  9  2  0
  9 10  1  0
 10 11  1  0
 11 12  1  0
 11 18  1  0
 12 13  1  0
 13 14  1  0
 13 16  1  0
 14 15  1  0
 16 17  1  0
 16 18  1  0
 18 19  1  0
 20 21  1  0
 21 22  2  0
 21 23  1  0
 23 24  2  0
 23 28  1  0
 24 25  1  0
 25 26  2  0
 25 30  1  0
 26 27  1  0
 27 28  2  0
 27 29  1  0
M  END
>  <Gold.Gold.Protein.RotatedWaterAtoms>  (553) 


>  <Gold.Id.Protein>  (553) 


>  <Gold.PLP.Chemscore.CHOScore>  (553) 
0.0000

>  <Gold.PLP.Chemscore.Hbond>  (553) 
4.1258

>  <Gold.PLP.Chemscore.Internal.Correction>  (553) 
0.4624

>  <Gold.PLP.Chemscore.Metal>  (553) 
0.0000

>  <Gold.PLP.Fitness>  (553) 
59.6221

>  <Gold.PLP.PLP>  (553) 
-48.5177

>  <Gold.PLP.ligand.clash>  (553) 
0.0000

>  <Gold.PLP.ligand.torsion>  (553) 
0.8676

>  <Gold.PLP.part.buried>  (553) 
-5.0180

>  <Gold.PLP.part.hbond>  (553) 
-6.0017

>  <Gold.PLP.part.metal>  (553) 
0.0000

>  <Gold.PLP.part.nonpolar>  (553) 
-37.3709

>  <Gold.PLP.part.repulsive>  (553) 
0.1469

>  <Gold.Protein.RotatedAtoms>  (553) 


>  <Gold.Protein.RotatedTorsions>  (553) 


>  <Gold.Protein.RotatedWaterAtoms>  (553) 


>  <Gold.Version>  (553) 
5.3.0

>  <PLP.Chemscore.CHOScore>  (553) 


>  <PLP.Chemscore.Hbond>  (553) 


>  <PLP.Chemscore.Internal.Correction>  (553) 


>  <PLP.Chemscore.Metal>  (553) 


>  <PLP.Fitness>  (553) 


>  <PLP.PLP>  (553) 


>  <PLP.ligand.clash>  (553) 


>  <PLP.ligand.torsion>  (553) 


>  <PLP.part.buried>  (553) 


>  <PLP.part.hbond>  (553) 


>  <PLP.part.metal>  (553) 


>  <PLP.part.nonpolar>  (553) 


>  <PLP.part.repulsive>  (553) 


>  <Version>  (553) 


$$$$
3553|Compound_2161|Compounds_3D_F|sdf|635|dock4|1
     RDKit          3D

 30 33  0  0  0  0  0  0  0  0999 V2000
  -13.1609  -18.0576    8.9295 O   0  0  0  0  0  0  0  0  0  0  0  0
  -12.4465  -18.3625   10.0396 C   0  0  0  0  0  0  0  0  0  0  0  0
  -11.2282  -17.8689   10.2165 N   0  0  0  0  0  0  0  0  0  0  0  0
  -10.5206  -18.1605   11.3003 C   0  0  0  0  0  0  0  0  0  0  0  0
  -10.9827  -18.9525   12.2533 N   0  0  0  0  0  0  0  0  0  0  0  0
  -12.1931  -19.4907   12.1559 C   0  0  0  0  0  0  0  0  0  0  0  0
  -12.9810  -19.2032   11.0282 C   0  0  0  0  0  0  0  0  0  0  0  0
  -14.1517  -19.8698   11.1782 N   0  0  0  0  0  0  0  0  0  0  0  0
  -14.1329  -20.5309   12.2991 C   0  0  0  0  0  0  0  0  0  0  0  0
  -12.9468  -20.3258   12.9415 N   0  0  0  0  0  0  0  0  0  0  0  0
  -12.5480  -20.8986   14.2285 C   0  0  0  0  0  0  0  0  0  0  0  0
  -11.2839  -21.5862   14.1034 O   0  0  0  0  0  0  0  0  0  0  0  0
  -11.2326  -22.4965   15.2235 C   0  0  0  0  0  0  0  0  0  0  0  0
  -10.2295  -23.6187   14.9512 C   0  0  0  0  0  0  0  0  0  0  0  0
  -10.4109  -24.6630   15.9104 O   0  0  0  0  0  0  0  0  0  0  0  0
  -12.6641  -23.0673   15.3334 C   0  0  0  0  0  0  0  0  0  0  0  0
  -13.0298  -23.2384   16.7045 O   0  0  0  0  0  0  0  0  0  0  0  0
  -13.5509  -21.9895   14.6663 C   0  0  0  0  0  0  0  0  0  0  0  0
  -14.4913  -21.4630   15.6044 O   0  0  0  0  0  0  0  0  0  0  0  0
   -9.2493  -17.6173   11.4377 N   0  0  0  0  0  0  0  0  0  0  0  0
   -9.0972  -16.3784   11.9475 C   0  0  0  0  0  0  0  0  0  0  0  0
  -10.0730  -15.7367   12.2859 O   0  0  0  0  0  0  0  0  0  0  0  0
   -7.7453  -15.8005   12.0939 C   0  0  0  0  0  0  0  0  0  0  0  0
   -6.6257  -16.6332   12.1182 C   0  0  0  0  0  0  0  0  0  0  0  0
   -5.3656  -16.0876   12.2557 C   0  0  0  0  0  0  0  0  0  0  0  0
   -5.2117  -14.7167   12.3689 C   0  0  0  0  0  0  0  0  0  0  0  0
   -6.3174  -13.8853   12.3458 C   0  0  0  0  0  0  0  0  0  0  0  0
   -7.5821  -14.4185   12.2030 C   0  0  0  0  0  0  0  0  0  0  0  0
   -6.1389  -12.3948   12.4710 C   0  0  0  0  0  0  0  0  0  0  0  0
   -4.1561  -16.9850   12.2820 C   0  0  0  0  0  0  0  0  0  0  0  0
  1  2  1  0
  2  3  2  0
  2  7  1  0
  3  4  1  0
  4  5  2  0
  4 20  1  0
  5  6  1  0
  6  7  2  0
  6 10  1  0
  7  8  1  0
  8  9  2  0
  9 10  1  0
 10 11  1  0
 11 12  1  0
 11 18  1  0
 12 13  1  0
 13 14  1  0
 13 16  1  0
 14 15  1  0
 16 17  1  0
 16 18  1  0
 18 19  1  0
 20 21  1  0
 21 22  2  0
 21 23  1  0
 23 24  2  0
 23 28  1  0
 24 25  1  0
 25 26  2  0
 25 30  1  0
 26 27  1  0
 27 28  2  0
 27 29  1  0
M  END
>  <Gold.Gold.Protein.RotatedWaterAtoms>  (554) 


>  <Gold.Id.Protein>  (554) 


>  <Gold.PLP.Chemscore.CHOScore>  (554) 
0.3863

>  <Gold.PLP.Chemscore.Hbond>  (554) 
3.0398

>  <Gold.PLP.Chemscore.Internal.Correction>  (554) 
0.4624

>  <Gold.PLP.Chemscore.Metal>  (554) 
0.0000

>  <Gold.PLP.Fitness>  (554) 
68.8852

>  <Gold.PLP.PLP>  (554) 
-60.3910

>  <Gold.PLP.ligand.clash>  (554) 
0.0000

>  <Gold.PLP.ligand.torsion>  (554) 
1.1233

>  <Gold.PLP.part.buried>  (554) 
-5.2533

>  <Gold.PLP.part.hbond>  (554) 
-3.8167

>  <Gold.PLP.part.metal>  (554) 
0.0000

>  <Gold.PLP.part.nonpolar>  (554) 
-52.5741

>  <Gold.PLP.part.repulsive>  (554) 
0.2631

>  <Gold.Protein.RotatedAtoms>  (554) 


>  <Gold.Protein.RotatedTorsions>  (554) 


>  <Gold.Protein.RotatedWaterAtoms>  (554) 


>  <Gold.Version>  (554) 
5.3.0

>  <PLP.Chemscore.CHOScore>  (554) 


>  <PLP.Chemscore.Hbond>  (554) 


>  <PLP.Chemscore.Internal.Correction>  (554) 


>  <PLP.Chemscore.Metal>  (554) 


>  <PLP.Fitness>  (554) 


>  <PLP.PLP>  (554) 


>  <PLP.ligand.clash>  (554) 


>  <PLP.ligand.torsion>  (554) 


>  <PLP.part.buried>  (554) 


>  <PLP.part.hbond>  (554) 


>  <PLP.part.metal>  (554) 


>  <PLP.part.nonpolar>  (554) 


>  <PLP.part.repulsive>  (554) 


>  <Version>  (554) 


$$$$
3554|Compound_2161|Compounds_3D_F|sdf|635|dock5|1
     RDKit          3D

 30 33  0  0  0  0  0  0  0  0999 V2000
   -8.4953  -19.5741    7.5419 O   0  0  0  0  0  0  0  0  0  0  0  0
   -8.7814  -19.1589    8.7994 C   0  0  0  0  0  0  0  0  0  0  0  0
   -8.2161  -18.0666    9.2959 N   0  0  0  0  0  0  0  0  0  0  0  0
   -8.4899  -17.6509   10.5258 C   0  0  0  0  0  0  0  0  0  0  0  0
   -9.3299  -18.2954   11.3183 N   0  0  0  0  0  0  0  0  0  0  0  0
   -9.9392  -19.3994   10.9012 C   0  0  0  0  0  0  0  0  0  0  0  0
   -9.6847  -19.8724    9.6024 C   0  0  0  0  0  0  0  0  0  0  0  0
  -10.4236  -20.9963    9.4345 N   0  0  0  0  0  0  0  0  0  0  0  0
  -11.0993  -21.2365   10.5205 C   0  0  0  0  0  0  0  0  0  0  0  0
  -10.8380  -20.2765   11.4542 N   0  0  0  0  0  0  0  0  0  0  0  0
  -11.4053  -20.2009   12.8017 C   0  0  0  0  0  0  0  0  0  0  0  0
  -10.9025  -21.2790   13.6209 O   0  0  0  0  0  0  0  0  0  0  0  0
  -11.8529  -21.4130   14.7001 C   0  0  0  0  0  0  0  0  0  0  0  0
  -11.7399  -22.7981   15.3393 C   0  0  0  0  0  0  0  0  0  0  0  0
  -11.8365  -23.8004   14.3246 O   0  0  0  0  0  0  0  0  0  0  0  0
  -13.2350  -21.2380   14.0322 C   0  0  0  0  0  0  0  0  0  0  0  0
  -14.1184  -20.5167   14.8938 O   0  0  0  0  0  0  0  0  0  0  0  0
  -12.9344  -20.4184   12.7551 C   0  0  0  0  0  0  0  0  0  0  0  0
  -13.6233  -19.1671   12.7886 O   0  0  0  0  0  0  0  0  0  0  0  0
   -7.8711  -16.5003   10.9984 N   0  0  0  0  0  0  0  0  0  0  0  0
   -8.4789  -15.3043   10.8638 C   0  0  0  0  0  0  0  0  0  0  0  0
   -9.5681  -15.2333   10.3279 O   0  0  0  0  0  0  0  0  0  0  0  0
   -7.8212  -14.0805   11.3665 C   0  0  0  0  0  0  0  0  0  0  0  0
   -6.5672  -14.1575   11.9739 C   0  0  0  0  0  0  0  0  0  0  0  0
   -5.9581  -13.0110   12.4419 C   0  0  0  0  0  0  0  0  0  0  0  0
   -6.5891  -11.7863   12.3089 C   0  0  0  0  0  0  0  0  0  0  0  0
   -7.8326  -11.7027   11.7078 C   0  0  0  0  0  0  0  0  0  0  0  0
   -8.4492  -12.8413   11.2307 C   0  0  0  0  0  0  0  0  0  0  0  0
   -8.5111  -10.3651   11.5691 C   0  0  0  0  0  0  0  0  0  0  0  0
   -4.6045  -13.0924   13.0977 C   0  0  0  0  0  0  0  0  0  0  0  0
  1  2  1  0
  2  3  2  0
  2  7  1  0
  3  4  1  0
  4  5  2  0
  4 20  1  0
  5  6  1  0
  6  7  2  0
  6 10  1  0
  7  8  1  0
  8  9  2  0
  9 10  1  0
 10 11  1  0
 11 12  1  0
 11 18  1  0
 12 13  1  0
 13 14  1  0
 13 16  1  0
 14 15  1  0
 16 17  1  0
 16 18  1  0
 18 19  1  0
 20 21  1  0
 21 22  2  0
 21 23  1  0
 23 24  2  0
 23 28  1  0
 24 25  1  0
 25 26  2  0
 25 30  1  0
 26 27  1  0
 27 28  2  0
 27 29  1  0
M  END
>  <Gold.Gold.Protein.RotatedWaterAtoms>  (555) 


>  <Gold.Id.Protein>  (555) 


>  <Gold.PLP.Chemscore.CHOScore>  (555) 
0.0000

>  <Gold.PLP.Chemscore.Hbond>  (555) 
1.9120

>  <Gold.PLP.Chemscore.Internal.Correction>  (555) 
0.4624

>  <Gold.PLP.Chemscore.Metal>  (555) 
0.0000

>  <Gold.PLP.Fitness>  (555) 
63.0146

>  <Gold.PLP.PLP>  (555) 
-58.7910

>  <Gold.PLP.ligand.clash>  (555) 
0.0000

>  <Gold.PLP.ligand.torsion>  (555) 
0.9874

>  <Gold.PLP.part.buried>  (555) 
-6.7208

>  <Gold.PLP.part.hbond>  (555) 
-3.2055

>  <Gold.PLP.part.metal>  (555) 
0.0000

>  <Gold.PLP.part.nonpolar>  (555) 
-50.5601

>  <Gold.PLP.part.repulsive>  (555) 
0.3202

>  <Gold.Protein.RotatedAtoms>  (555) 


>  <Gold.Protein.RotatedTorsions>  (555) 


>  <Gold.Protein.RotatedWaterAtoms>  (555) 


>  <Gold.Version>  (555) 
5.3.0

>  <PLP.Chemscore.CHOScore>  (555) 


>  <PLP.Chemscore.Hbond>  (555) 


>  <PLP.Chemscore.Internal.Correction>  (555) 


>  <PLP.Chemscore.Metal>  (555) 


>  <PLP.Fitness>  (555) 


>  <PLP.PLP>  (555) 


>  <PLP.ligand.clash>  (555) 


>  <PLP.ligand.torsion>  (555) 


>  <PLP.part.buried>  (555) 


>  <PLP.part.hbond>  (555) 


>  <PLP.part.metal>  (555) 


>  <PLP.part.nonpolar>  (555) 


>  <PLP.part.repulsive>  (555) 


>  <Version>  (555) 


$$$$
3555|Compound_2161|Compounds_3D_F|sdf|635|dock6|1
     RDKit          3D

 30 33  0  0  0  0  0  0  0  0999 V2000
   -8.4971  -19.6203    7.6137 O   0  0  0  0  0  0  0  0  0  0  0  0
   -8.7942  -19.1970    8.8659 C   0  0  0  0  0  0  0  0  0  0  0  0
   -8.2297  -18.1041    9.3621 N   0  0  0  0  0  0  0  0  0  0  0  0
   -8.5143  -17.6805   10.5868 C   0  0  0  0  0  0  0  0  0  0  0  0
   -9.3648  -18.3173   11.3743 N   0  0  0  0  0  0  0  0  0  0  0  0
   -9.9743  -19.4211   10.9571 C   0  0  0  0  0  0  0  0  0  0  0  0
   -9.7086  -19.9023    9.6636 C   0  0  0  0  0  0  0  0  0  0  0  0
  -10.4502  -21.0242    9.4944 N   0  0  0  0  0  0  0  0  0  0  0  0
  -11.1378  -21.2557   10.5748 C   0  0  0  0  0  0  0  0  0  0  0  0
  -10.8822  -20.2916   11.5058 N   0  0  0  0  0  0  0  0  0  0  0  0
  -11.4629  -20.2062   12.8470 C   0  0  0  0  0  0  0  0  0  0  0  0
  -10.9974  -21.2999   13.6676 O   0  0  0  0  0  0  0  0  0  0  0  0
  -11.9633  -21.4132   14.7354 C   0  0  0  0  0  0  0  0  0  0  0  0
  -11.8935  -22.8031   15.3704 C   0  0  0  0  0  0  0  0  0  0  0  0
  -12.9690  -22.9570   16.2995 O   0  0  0  0  0  0  0  0  0  0  0  0
  -13.3327  -21.2001   14.0525 C   0  0  0  0  0  0  0  0  0  0  0  0
  -14.2071  -20.4594   14.9067 O   0  0  0  0  0  0  0  0  0  0  0  0
  -12.9964  -20.3840   12.7820 C   0  0  0  0  0  0  0  0  0  0  0  0
  -13.6531  -19.1154   12.8126 O   0  0  0  0  0  0  0  0  0  0  0  0
   -7.8957  -16.5297   11.0593 N   0  0  0  0  0  0  0  0  0  0  0  0
   -8.4811  -15.3283   10.8814 C   0  0  0  0  0  0  0  0  0  0  0  0
   -9.5499  -15.2525   10.3066 O   0  0  0  0  0  0  0  0  0  0  0  0
   -7.8237  -14.1043   11.3839 C   0  0  0  0  0  0  0  0  0  0  0  0
   -8.4569  -12.8668   11.2597 C   0  0  0  0  0  0  0  0  0  0  0  0
   -7.8376  -11.7270   11.7305 C   0  0  0  0  0  0  0  0  0  0  0  0
   -6.5908  -11.8103   12.3257 C   0  0  0  0  0  0  0  0  0  0  0  0
   -5.9572  -13.0339   12.4520 C   0  0  0  0  0  0  0  0  0  0  0  0
   -6.5688  -14.1814   11.9903 C   0  0  0  0  0  0  0  0  0  0  0  0
   -4.5998  -13.1132   13.1002 C   0  0  0  0  0  0  0  0  0  0  0  0
   -8.5197  -10.3906   11.5973 C   0  0  0  0  0  0  0  0  0  0  0  0
  1  2  1  0
  2  3  2  0
  2  7  1  0
  3  4  1  0
  4  5  2  0
  4 20  1  0
  5  6  1  0
  6  7  2  0
  6 10  1  0
  7  8  1  0
  8  9  2  0
  9 10  1  0
 10 11  1  0
 11 12  1  0
 11 18  1  0
 12 13  1  0
 13 14  1  0
 13 16  1  0
 14 15  1  0
 16 17  1  0
 16 18  1  0
 18 19  1  0
 20 21  1  0
 21 22  2  0
 21 23  1  0
 23 24  2  0
 23 28  1  0
 24 25  1  0
 25 26  2  0
 25 30  1  0
 26 27  1  0
 27 28  2  0
 27 29  1  0
M  END
>  <Gold.Gold.Protein.RotatedWaterAtoms>  (556) 


>  <Gold.Id.Protein>  (556) 


>  <Gold.PLP.Chemscore.CHOScore>  (556) 
0.0000

>  <Gold.PLP.Chemscore.Hbond>  (556) 
2.8720

>  <Gold.PLP.Chemscore.Internal.Correction>  (556) 
0.4624

>  <Gold.PLP.Chemscore.Metal>  (556) 
0.0000

>  <Gold.PLP.Fitness>  (556) 
66.3501

>  <Gold.PLP.PLP>  (556) 
-59.1724

>  <Gold.PLP.ligand.clash>  (556) 
0.0000

>  <Gold.PLP.ligand.torsion>  (556) 
0.9504

>  <Gold.PLP.part.buried>  (556) 
-6.9896

>  <Gold.PLP.part.hbond>  (556) 
-3.2827

>  <Gold.PLP.part.metal>  (556) 
0.0000

>  <Gold.PLP.part.nonpolar>  (556) 
-50.6665

>  <Gold.PLP.part.repulsive>  (556) 
0.3184

>  <Gold.Protein.RotatedAtoms>  (556) 


>  <Gold.Protein.RotatedTorsions>  (556) 


>  <Gold.Protein.RotatedWaterAtoms>  (556) 


>  <Gold.Version>  (556) 
5.3.0

>  <PLP.Chemscore.CHOScore>  (556) 


>  <PLP.Chemscore.Hbond>  (556) 


>  <PLP.Chemscore.Internal.Correction>  (556) 


>  <PLP.Chemscore.Metal>  (556) 


>  <PLP.Fitness>  (556) 


>  <PLP.PLP>  (556) 


>  <PLP.ligand.clash>  (556) 


>  <PLP.ligand.torsion>  (556) 


>  <PLP.part.buried>  (556) 


>  <PLP.part.hbond>  (556) 


>  <PLP.part.metal>  (556) 


>  <PLP.part.nonpolar>  (556) 


>  <PLP.part.repulsive>  (556) 


>  <Version>  (556) 


$$$$
3556|Compound_2161|Compounds_3D_F|sdf|635|dock7|1
     RDKit          3D

 30 33  0  0  0  0  0  0  0  0999 V2000
  -13.6710  -17.6554    9.1323 O   0  0  0  0  0  0  0  0  0  0  0  0
  -12.8183  -18.3466    9.9265 C   0  0  0  0  0  0  0  0  0  0  0  0
  -11.5820  -17.9118   10.1313 N   0  0  0  0  0  0  0  0  0  0  0  0
  -10.7394  -18.5806   10.9078 C   0  0  0  0  0  0  0  0  0  0  0  0
  -11.0788  -19.7068   11.5126 N   0  0  0  0  0  0  0  0  0  0  0  0
  -12.2970  -20.2138   11.3610 C   0  0  0  0  0  0  0  0  0  0  0  0
  -13.2252  -19.5347   10.5532 C   0  0  0  0  0  0  0  0  0  0  0  0
  -14.3724  -20.2564   10.5695 N   0  0  0  0  0  0  0  0  0  0  0  0
  -14.2114  -21.3086   11.3183 C   0  0  0  0  0  0  0  0  0  0  0  0
  -12.9482  -21.3254   11.8335 N   0  0  0  0  0  0  0  0  0  0  0  0
  -12.3874  -22.3463   12.7204 C   0  0  0  0  0  0  0  0  0  0  0  0
  -13.2617  -22.5684   13.8485 O   0  0  0  0  0  0  0  0  0  0  0  0
  -12.4298  -23.1735   14.8623 C   0  0  0  0  0  0  0  0  0  0  0  0
  -13.0634  -22.9998   16.2436 C   0  0  0  0  0  0  0  0  0  0  0  0
  -12.2492  -23.6447   17.2258 O   0  0  0  0  0  0  0  0  0  0  0  0
  -11.0908  -22.4068   14.7826 C   0  0  0  0  0  0  0  0  0  0  0  0
   -9.9927  -23.2952   15.0012 O   0  0  0  0  0  0  0  0  0  0  0  0
  -11.0603  -21.8524   13.3387 C   0  0  0  0  0  0  0  0  0  0  0  0
   -9.9426  -22.3806   12.6223 O   0  0  0  0  0  0  0  0  0  0  0  0
   -9.4554  -18.0824   11.0899 N   0  0  0  0  0  0  0  0  0  0  0  0
   -9.2750  -16.8841   11.6812 C   0  0  0  0  0  0  0  0  0  0  0  0
  -10.2364  -16.2398   12.0540 O   0  0  0  0  0  0  0  0  0  0  0  0
   -7.9096  -16.3540   11.8752 C   0  0  0  0  0  0  0  0  0  0  0  0
   -7.7115  -14.9897   12.0922 C   0  0  0  0  0  0  0  0  0  0  0  0
   -6.4338  -14.5003   12.2723 C   0  0  0  0  0  0  0  0  0  0  0  0
   -5.3501  -15.3607   12.2384 C   0  0  0  0  0  0  0  0  0  0  0  0
   -5.5393  -16.7144   12.0236 C   0  0  0  0  0  0  0  0  0  0  0  0
   -6.8125  -17.2165   11.8479 C   0  0  0  0  0  0  0  0  0  0  0  0
   -4.3529  -17.6419   11.9873 C   0  0  0  0  0  0  0  0  0  0  0  0
   -6.2182  -13.0281   12.5067 C   0  0  0  0  0  0  0  0  0  0  0  0
  1  2  1  0
  2  3  2  0
  2  7  1  0
  3  4  1  0
  4  5  2  0
  4 20  1  0
  5  6  1  0
  6  7  2  0
  6 10  1  0
  7  8  1  0
  8  9  2  0
  9 10  1  0
 10 11  1  0
 11 12  1  0
 11 18  1  0
 12 13  1  0
 13 14  1  0
 13 16  1  0
 14 15  1  0
 16 17  1  0
 16 18  1  0
 18 19  1  0
 20 21  1  0
 21 22  2  0
 21 23  1  0
 23 24  2  0
 23 28  1  0
 24 25  1  0
 25 26  2  0
 25 30  1  0
 26 27  1  0
 27 28  2  0
 27 29  1  0
M  END
>  <Gold.Gold.Protein.RotatedWaterAtoms>  (557) 


>  <Gold.Id.Protein>  (557) 


>  <Gold.PLP.Chemscore.CHOScore>  (557) 
0.0000

>  <Gold.PLP.Chemscore.Hbond>  (557) 
1.6201

>  <Gold.PLP.Chemscore.Internal.Correction>  (557) 
0.4601

>  <Gold.PLP.Chemscore.Metal>  (557) 
0.0000

>  <Gold.PLP.Fitness>  (557) 
59.2465

>  <Gold.PLP.PLP>  (557) 
-55.9280

>  <Gold.PLP.ligand.clash>  (557) 
0.0000

>  <Gold.PLP.ligand.torsion>  (557) 
1.0010

>  <Gold.PLP.part.buried>  (557) 
-11.0261

>  <Gold.PLP.part.hbond>  (557) 
-2.7287

>  <Gold.PLP.part.metal>  (557) 
0.0000

>  <Gold.PLP.part.nonpolar>  (557) 
-42.7964

>  <Gold.PLP.part.repulsive>  (557) 
0.2657

>  <Gold.Protein.RotatedAtoms>  (557) 


>  <Gold.Protein.RotatedTorsions>  (557) 


>  <Gold.Protein.RotatedWaterAtoms>  (557) 


>  <Gold.Version>  (557) 
5.3.0

>  <PLP.Chemscore.CHOScore>  (557) 


>  <PLP.Chemscore.Hbond>  (557) 


>  <PLP.Chemscore.Internal.Correction>  (557) 


>  <PLP.Chemscore.Metal>  (557) 


>  <PLP.Fitness>  (557) 


>  <PLP.PLP>  (557) 


>  <PLP.ligand.clash>  (557) 


>  <PLP.ligand.torsion>  (557) 


>  <PLP.part.buried>  (557) 


>  <PLP.part.hbond>  (557) 


>  <PLP.part.metal>  (557) 


>  <PLP.part.nonpolar>  (557) 


>  <PLP.part.repulsive>  (557) 


>  <Version>  (557) 


$$$$
3557|Compound_2161|Compounds_3D_F|sdf|635|dock8|1
     RDKit          3D

 30 33  0  0  0  0  0  0  0  0999 V2000
  -14.2738  -19.1756    8.2939 O   0  0  0  0  0  0  0  0  0  0  0  0
  -13.4157  -19.4526    9.3051 C   0  0  0  0  0  0  0  0  0  0  0  0
  -12.4941  -18.5714    9.6704 N   0  0  0  0  0  0  0  0  0  0  0  0
  -11.6495  -18.8323   10.6598 C   0  0  0  0  0  0  0  0  0  0  0  0
  -11.6761  -19.9730   11.3285 N   0  0  0  0  0  0  0  0  0  0  0  0
  -12.5663  -20.9115   11.0272 C   0  0  0  0  0  0  0  0  0  0  0  0
  -13.4856  -20.6752    9.9908 C   0  0  0  0  0  0  0  0  0  0  0  0
  -14.2687  -21.7772    9.8922 N   0  0  0  0  0  0  0  0  0  0  0  0
  -13.8980  -22.6526   10.7810 C   0  0  0  0  0  0  0  0  0  0  0  0
  -12.8533  -22.1636   11.5097 N   0  0  0  0  0  0  0  0  0  0  0  0
  -12.1601  -22.8517   12.6002 C   0  0  0  0  0  0  0  0  0  0  0  0
  -13.0257  -22.9723   13.7503 O   0  0  0  0  0  0  0  0  0  0  0  0
  -12.1416  -23.1859   14.8722 C   0  0  0  0  0  0  0  0  0  0  0  0
  -12.8478  -22.8291   16.1812 C   0  0  0  0  0  0  0  0  0  0  0  0
  -14.0570  -23.5835   16.2912 O   0  0  0  0  0  0  0  0  0  0  0  0
  -10.9517  -22.2322   14.6235 C   0  0  0  0  0  0  0  0  0  0  0  0
   -9.7268  -22.8446   15.0326 O   0  0  0  0  0  0  0  0  0  0  0  0
  -10.9617  -22.0096   13.0927 C   0  0  0  0  0  0  0  0  0  0  0  0
   -9.7436  -22.4768   12.5101 O   0  0  0  0  0  0  0  0  0  0  0  0
  -10.7029  -17.8753   11.0037 N   0  0  0  0  0  0  0  0  0  0  0  0
   -9.4284  -18.2438   11.2438 C   0  0  0  0  0  0  0  0  0  0  0  0
   -9.1083  -19.4139   11.1601 O   0  0  0  0  0  0  0  0  0  0  0  0
   -8.4213  -17.2264   11.6094 C   0  0  0  0  0  0  0  0  0  0  0  0
   -8.7932  -15.8878   11.7417 C   0  0  0  0  0  0  0  0  0  0  0  0
   -7.8480  -14.9419   12.0829 C   0  0  0  0  0  0  0  0  0  0  0  0
   -6.5333  -15.3196   12.2943 C   0  0  0  0  0  0  0  0  0  0  0  0
   -6.1577  -16.6450   12.1647 C   0  0  0  0  0  0  0  0  0  0  0  0
   -7.0948  -17.6009   11.8296 C   0  0  0  0  0  0  0  0  0  0  0  0
   -4.7240  -17.0452   12.3958 C   0  0  0  0  0  0  0  0  0  0  0  0
   -8.2477  -13.4967   12.2261 C   0  0  0  0  0  0  0  0  0  0  0  0
  1  2  1  0
  2  3  2  0
  2  7  1  0
  3  4  1  0
  4  5  2  0
  4 20  1  0
  5  6  1  0
  6  7  2  0
  6 10  1  0
  7  8  1  0
  8  9  2  0
  9 10  1  0
 10 11  1  0
 11 12  1  0
 11 18  1  0
 12 13  1  0
 13 14  1  0
 13 16  1  0
 14 15  1  0
 16 17  1  0
 16 18  1  0
 18 19  1  0
 20 21  1  0
 21 22  2  0
 21 23  1  0
 23 24  2  0
 23 28  1  0
 24 25  1  0
 25 26  2  0
 25 30  1  0
 26 27  1  0
 27 28  2  0
 27 29  1  0
M  END
>  <Gold.Gold.Protein.RotatedWaterAtoms>  (558) 


>  <Gold.Id.Protein>  (558) 


>  <Gold.PLP.Chemscore.CHOScore>  (558) 
0.0000

>  <Gold.PLP.Chemscore.Hbond>  (558) 
3.1238

>  <Gold.PLP.Chemscore.Internal.Correction>  (558) 
0.4601

>  <Gold.PLP.Chemscore.Metal>  (558) 
0.0000

>  <Gold.PLP.Fitness>  (558) 
60.0099

>  <Gold.PLP.PLP>  (558) 
-51.1340

>  <Gold.PLP.ligand.clash>  (558) 
0.0000

>  <Gold.PLP.ligand.torsion>  (558) 
0.4778

>  <Gold.PLP.part.buried>  (558) 
-6.6144

>  <Gold.PLP.part.hbond>  (558) 
-7.1355

>  <Gold.PLP.part.metal>  (558) 
0.0000

>  <Gold.PLP.part.nonpolar>  (558) 
-38.4956

>  <Gold.PLP.part.repulsive>  (558) 
0.1152

>  <Gold.Protein.RotatedAtoms>  (558) 


>  <Gold.Protein.RotatedTorsions>  (558) 


>  <Gold.Protein.RotatedWaterAtoms>  (558) 


>  <Gold.Version>  (558) 
5.3.0

>  <PLP.Chemscore.CHOScore>  (558) 


>  <PLP.Chemscore.Hbond>  (558) 


>  <PLP.Chemscore.Internal.Correction>  (558) 


>  <PLP.Chemscore.Metal>  (558) 


>  <PLP.Fitness>  (558) 


>  <PLP.PLP>  (558) 


>  <PLP.ligand.clash>  (558) 


>  <PLP.ligand.torsion>  (558) 


>  <PLP.part.buried>  (558) 


>  <PLP.part.hbond>  (558) 


>  <PLP.part.metal>  (558) 


>  <PLP.part.nonpolar>  (558) 


>  <PLP.part.repulsive>  (558) 


>  <Version>  (558) 


$$$$
3558|Compound_2161|Compounds_3D_F|sdf|635|dock9|1
     RDKit          3D

 30 33  0  0  0  0  0  0  0  0999 V2000
   -8.4059  -19.5974    7.4103 O   0  0  0  0  0  0  0  0  0  0  0  0
   -8.7026  -19.1455    8.6526 C   0  0  0  0  0  0  0  0  0  0  0  0
   -8.1313  -18.0463    9.1267 N   0  0  0  0  0  0  0  0  0  0  0  0
   -8.4154  -17.5948   10.3415 C   0  0  0  0  0  0  0  0  0  0  0  0
   -9.2720  -18.2087   11.1405 N   0  0  0  0  0  0  0  0  0  0  0  0
   -9.8884  -19.3169   10.7455 C   0  0  0  0  0  0  0  0  0  0  0  0
   -9.6235  -19.8273    9.4631 C   0  0  0  0  0  0  0  0  0  0  0  0
  -10.3727  -20.9473    9.3162 N   0  0  0  0  0  0  0  0  0  0  0  0
  -11.0641  -21.1510   10.3998 C   0  0  0  0  0  0  0  0  0  0  0  0
  -10.8035  -20.1691   11.3106 N   0  0  0  0  0  0  0  0  0  0  0  0
  -11.3862  -20.0512   12.6485 C   0  0  0  0  0  0  0  0  0  0  0  0
  -10.8983  -21.1070   13.5050 O   0  0  0  0  0  0  0  0  0  0  0  0
  -11.8619  -21.2047   14.5763 C   0  0  0  0  0  0  0  0  0  0  0  0
  -11.7633  -22.5709   15.2573 C   0  0  0  0  0  0  0  0  0  0  0  0
  -11.6853  -23.5945   14.2626 O   0  0  0  0  0  0  0  0  0  0  0  0
  -13.2353  -21.0432   13.8872 C   0  0  0  0  0  0  0  0  0  0  0  0
  -14.1252  -20.2929   14.7166 O   0  0  0  0  0  0  0  0  0  0  0  0
  -12.9157  -20.2631   12.5901 C   0  0  0  0  0  0  0  0  0  0  0  0
  -13.5988  -19.0082   12.5786 O   0  0  0  0  0  0  0  0  0  0  0  0
   -7.7897  -16.4386   10.7908 N   0  0  0  0  0  0  0  0  0  0  0  0
   -8.5000  -15.3024   10.9404 C   0  0  0  0  0  0  0  0  0  0  0  0
   -9.6879  -15.2900   10.6811 O   0  0  0  0  0  0  0  0  0  0  0  0
   -7.8350  -14.0727   11.4184 C   0  0  0  0  0  0  0  0  0  0  0  0
   -8.4645  -12.8352   11.2777 C   0  0  0  0  0  0  0  0  0  0  0  0
   -7.8381  -11.6900   11.7256 C   0  0  0  0  0  0  0  0  0  0  0  0
   -6.5878  -11.7680   12.3141 C   0  0  0  0  0  0  0  0  0  0  0  0
   -5.9579  -12.9916   12.4568 C   0  0  0  0  0  0  0  0  0  0  0  0
   -6.5765  -14.1444   12.0180 C   0  0  0  0  0  0  0  0  0  0  0  0
   -4.5967  -13.0653   13.0976 C   0  0  0  0  0  0  0  0  0  0  0  0
   -8.5163  -10.3535   11.5745 C   0  0  0  0  0  0  0  0  0  0  0  0
  1  2  1  0
  2  3  2  0
  2  7  1  0
  3  4  1  0
  4  5  2  0
  4 20  1  0
  5  6  1  0
  6  7  2  0
  6 10  1  0
  7  8  1  0
  8  9  2  0
  9 10  1  0
 10 11  1  0
 11 12  1  0
 11 18  1  0
 12 13  1  0
 13 14  1  0
 13 16  1  0
 14 15  1  0
 16 17  1  0
 16 18  1  0
 18 19  1  0
 20 21  1  0
 21 22  2  0
 21 23  1  0
 23 24  2  0
 23 28  1  0
 24 25  1  0
 25 26  2  0
 25 30  1  0
 26 27  1  0
 27 28  2  0
 27 29  1  0
M  END
>  <Gold.Gold.Protein.RotatedWaterAtoms>  (559) 


>  <Gold.Id.Protein>  (559) 


>  <Gold.PLP.Chemscore.CHOScore>  (559) 
0.0000

>  <Gold.PLP.Chemscore.Hbond>  (559) 
2.9920

>  <Gold.PLP.Chemscore.Internal.Correction>  (559) 
0.4601

>  <Gold.PLP.Chemscore.Metal>  (559) 
0.0000

>  <Gold.PLP.Fitness>  (559) 
64.7287

>  <Gold.PLP.PLP>  (559) 
-57.4570

>  <Gold.PLP.ligand.clash>  (559) 
0.0000

>  <Gold.PLP.ligand.torsion>  (559) 
1.0822

>  <Gold.PLP.part.buried>  (559) 
-5.3227

>  <Gold.PLP.part.hbond>  (559) 
-2.0388

>  <Gold.PLP.part.metal>  (559) 
0.0000

>  <Gold.PLP.part.nonpolar>  (559) 
-50.9002

>  <Gold.PLP.part.repulsive>  (559) 
0.1084

>  <Gold.Protein.RotatedAtoms>  (559) 


>  <Gold.Protein.RotatedTorsions>  (559) 


>  <Gold.Protein.RotatedWaterAtoms>  (559) 


>  <Gold.Version>  (559) 
5.3.0

>  <PLP.Chemscore.CHOScore>  (559) 


>  <PLP.Chemscore.Hbond>  (559) 


>  <PLP.Chemscore.Internal.Correction>  (559) 


>  <PLP.Chemscore.Metal>  (559) 


>  <PLP.Fitness>  (559) 


>  <PLP.PLP>  (559) 


>  <PLP.ligand.clash>  (559) 


>  <PLP.ligand.torsion>  (559) 


>  <PLP.part.buried>  (559) 


>  <PLP.part.hbond>  (559) 


>  <PLP.part.metal>  (559) 


>  <PLP.part.nonpolar>  (559) 


>  <PLP.part.repulsive>  (559) 


>  <Version>  (559) 


$$$$
3559|Compound_2162|Compounds_3D_F|sdf|636|dock1|1
     RDKit          3D

 20 21  0  0  0  0  0  0  0  0999 V2000
   -7.8926  -15.6550   11.6610 N   0  0  0  0  0  0  0  0  0  0  0  0
   -8.4644  -14.4579   11.9001 C   0  0  0  0  0  0  0  0  0  0  0  0
   -9.6709  -14.3738   12.0173 O   0  0  0  0  0  0  0  0  0  0  0  0
   -7.6230  -13.2482   12.0199 C   0  0  0  0  0  0  0  0  0  0  0  0
   -6.2755  -13.3630   12.3667 C   0  0  0  0  0  0  0  0  0  0  0  0
   -5.4964  -12.2293   12.4766 C   0  0  0  0  0  0  0  0  0  0  0  0
   -6.0475  -10.9825   12.2442 C   0  0  0  0  0  0  0  0  0  0  0  0
   -7.3825  -10.8620   11.8992 C   0  0  0  0  0  0  0  0  0  0  0  0
   -8.1717  -11.9869   11.7800 C   0  0  0  0  0  0  0  0  0  0  0  0
   -7.9737   -9.4988   11.6467 C   0  0  0  0  0  0  0  0  0  0  0  0
   -8.6809  -16.7880   11.5437 C   0  0  0  0  0  0  0  0  0  0  0  0
   -9.9489  -16.8642   11.8497 N   0  0  0  0  0  0  0  0  0  0  0  0
  -10.3751  -18.1338   11.6000 C   0  0  0  0  0  0  0  0  0  0  0  0
   -9.3063  -18.8315   11.1278 C   0  0  0  0  0  0  0  0  0  0  0  0
   -8.2645  -17.9824   11.0927 O   0  0  0  0  0  0  0  0  0  0  0  0
  -11.7374  -18.6547   11.8052 C   0  0  0  0  0  0  0  0  0  0  0  0
  -12.5201  -18.0475   12.5092 O   0  0  0  0  0  0  0  0  0  0  0  0
  -12.1154  -19.8042   11.2126 O   0  0  0  0  0  0  0  0  0  0  0  0
  -13.5385  -20.0912   11.1778 C   0  0  0  0  0  0  0  0  0  0  0  0
  -14.1914  -19.2997   10.0435 C   0  0  0  0  0  0  0  0  0  0  0  0
  1  2  1  0
  1 11  1  0
  2  3  2  0
  2  4  1  0
  4  5  2  0
  4  9  1  0
  5  6  1  0
  6  7  2  0
  7  8  1  0
  8  9  2  0
  8 10  1  0
 11 12  2  0
 11 15  1  0
 12 13  1  0
 13 14  2  0
 13 16  1  0
 14 15  1  0
 16 17  2  0
 16 18  1  0
 18 19  1  0
 19 20  1  0
M  END
>  <Gold.Gold.Protein.RotatedWaterAtoms>  (560) 


>  <Gold.Id.Protein>  (560) 


>  <Gold.PLP.Chemscore.CHOScore>  (560) 
0.0000

>  <Gold.PLP.Chemscore.Hbond>  (560) 
1.7353

>  <Gold.PLP.Chemscore.Internal.Correction>  (560) 
0.0889

>  <Gold.PLP.Chemscore.Metal>  (560) 
0.0000

>  <Gold.PLP.Fitness>  (560) 
66.6961

>  <Gold.PLP.PLP>  (560) 
-62.7407

>  <Gold.PLP.ligand.clash>  (560) 
0.0000

>  <Gold.PLP.ligand.torsion>  (560) 
0.6697

>  <Gold.PLP.part.buried>  (560) 
-10.6029

>  <Gold.PLP.part.hbond>  (560) 
-3.0795

>  <Gold.PLP.part.metal>  (560) 
0.0000

>  <Gold.PLP.part.nonpolar>  (560) 
-50.0821

>  <Gold.PLP.part.repulsive>  (560) 
0.3213

>  <Gold.Protein.RotatedAtoms>  (560) 


>  <Gold.Protein.RotatedTorsions>  (560) 


>  <Gold.Protein.RotatedWaterAtoms>  (560) 


>  <Gold.Version>  (560) 
5.3.0

>  <PLP.Chemscore.CHOScore>  (560) 


>  <PLP.Chemscore.Hbond>  (560) 


>  <PLP.Chemscore.Internal.Correction>  (560) 


>  <PLP.Chemscore.Metal>  (560) 


>  <PLP.Fitness>  (560) 


>  <PLP.PLP>  (560) 


>  <PLP.ligand.clash>  (560) 


>  <PLP.ligand.torsion>  (560) 


>  <PLP.part.buried>  (560) 


>  <PLP.part.hbond>  (560) 


>  <PLP.part.metal>  (560) 


>  <PLP.part.nonpolar>  (560) 


>  <PLP.part.repulsive>  (560) 


>  <Version>  (560) 


$$$$
3560|Compound_2162|Compounds_3D_F|sdf|636|dock2|1
     RDKit          3D

 20 21  0  0  0  0  0  0  0  0999 V2000
   -7.9284  -15.6974   11.7613 N   0  0  0  0  0  0  0  0  0  0  0  0
   -8.4782  -14.4683   11.6959 C   0  0  0  0  0  0  0  0  0  0  0  0
   -9.6640  -14.3451   11.4610 O   0  0  0  0  0  0  0  0  0  0  0  0
   -7.6380  -13.2709   11.9104 C   0  0  0  0  0  0  0  0  0  0  0  0
   -6.3122  -13.4100   12.3254 C   0  0  0  0  0  0  0  0  0  0  0  0
   -5.5340  -12.2877   12.5235 C   0  0  0  0  0  0  0  0  0  0  0  0
   -6.0646  -11.0284   12.3120 C   0  0  0  0  0  0  0  0  0  0  0  0
   -7.3779  -10.8837   11.8998 C   0  0  0  0  0  0  0  0  0  0  0  0
   -8.1657  -11.9968   11.6921 C   0  0  0  0  0  0  0  0  0  0  0  0
   -7.9468   -9.5069   11.6707 C   0  0  0  0  0  0  0  0  0  0  0  0
   -8.7142  -16.8194   11.5555 C   0  0  0  0  0  0  0  0  0  0  0  0
   -9.9990  -16.8967   11.7805 N   0  0  0  0  0  0  0  0  0  0  0  0
  -10.4160  -18.1533   11.4597 C   0  0  0  0  0  0  0  0  0  0  0  0
   -9.3241  -18.8420   11.0291 C   0  0  0  0  0  0  0  0  0  0  0  0
   -8.2775  -18.0002   11.0882 O   0  0  0  0  0  0  0  0  0  0  0  0
  -11.7912  -18.6707   11.5625 C   0  0  0  0  0  0  0  0  0  0  0  0
  -12.3418  -18.7214   12.6447 O   0  0  0  0  0  0  0  0  0  0  0  0
  -12.4383  -19.0879   10.4567 O   0  0  0  0  0  0  0  0  0  0  0  0
  -13.8549  -19.3771   10.5913 C   0  0  0  0  0  0  0  0  0  0  0  0
  -14.4565  -19.6379    9.2095 C   0  0  0  0  0  0  0  0  0  0  0  0
  1  2  1  0
  1 11  1  0
  2  3  2  0
  2  4  1  0
  4  5  2  0
  4  9  1  0
  5  6  1  0
  6  7  2  0
  7  8  1  0
  8  9  2  0
  8 10  1  0
 11 12  2  0
 11 15  1  0
 12 13  1  0
 13 14  2  0
 13 16  1  0
 14 15  1  0
 16 17  2  0
 16 18  1  0
 18 19  1  0
 19 20  1  0
M  END
>  <Gold.Gold.Protein.RotatedWaterAtoms>  (561) 


>  <Gold.Id.Protein>  (561) 


>  <Gold.PLP.Chemscore.CHOScore>  (561) 
0.0000

>  <Gold.PLP.Chemscore.Hbond>  (561) 
1.8720

>  <Gold.PLP.Chemscore.Internal.Correction>  (561) 
0.0487

>  <Gold.PLP.Chemscore.Metal>  (561) 
0.0000

>  <Gold.PLP.Fitness>  (561) 
66.0854

>  <Gold.PLP.PLP>  (561) 
-63.3261

>  <Gold.PLP.ligand.clash>  (561) 
0.0000

>  <Gold.PLP.ligand.torsion>  (561) 
1.4527

>  <Gold.PLP.part.buried>  (561) 
-10.7371

>  <Gold.PLP.part.hbond>  (561) 
-2.4159

>  <Gold.PLP.part.metal>  (561) 
0.0000

>  <Gold.PLP.part.nonpolar>  (561) 
-50.7646

>  <Gold.PLP.part.repulsive>  (561) 
0.2976

>  <Gold.Protein.RotatedAtoms>  (561) 


>  <Gold.Protein.RotatedTorsions>  (561) 


>  <Gold.Protein.RotatedWaterAtoms>  (561) 


>  <Gold.Version>  (561) 
5.3.0

>  <PLP.Chemscore.CHOScore>  (561) 


>  <PLP.Chemscore.Hbond>  (561) 


>  <PLP.Chemscore.Internal.Correction>  (561) 


>  <PLP.Chemscore.Metal>  (561) 


>  <PLP.Fitness>  (561) 


>  <PLP.PLP>  (561) 


>  <PLP.ligand.clash>  (561) 


>  <PLP.ligand.torsion>  (561) 


>  <PLP.part.buried>  (561) 


>  <PLP.part.hbond>  (561) 


>  <PLP.part.metal>  (561) 


>  <PLP.part.nonpolar>  (561) 


>  <PLP.part.repulsive>  (561) 


>  <Version>  (561) 


$$$$
3561|Compound_2162|Compounds_3D_F|sdf|636|dock3|1
     RDKit          3D

 20 21  0  0  0  0  0  0  0  0999 V2000
   -7.9131  -15.6710   11.7127 N   0  0  0  0  0  0  0  0  0  0  0  0
   -8.4716  -14.4558   11.8815 C   0  0  0  0  0  0  0  0  0  0  0  0
   -9.6805  -14.3451   11.9341 O   0  0  0  0  0  0  0  0  0  0  0  0
   -7.6128  -13.2586   12.0027 C   0  0  0  0  0  0  0  0  0  0  0  0
   -6.2614  -13.3949   12.3258 C   0  0  0  0  0  0  0  0  0  0  0  0
   -5.4660  -12.2727   12.4371 C   0  0  0  0  0  0  0  0  0  0  0  0
   -6.0047  -11.0162   12.2295 C   0  0  0  0  0  0  0  0  0  0  0  0
   -7.3434  -10.8743   11.9080 C   0  0  0  0  0  0  0  0  0  0  0  0
   -8.1490  -11.9874   11.7876 C   0  0  0  0  0  0  0  0  0  0  0  0
   -7.9209   -9.5005   11.6824 C   0  0  0  0  0  0  0  0  0  0  0  0
   -8.7174  -16.7925   11.5942 C   0  0  0  0  0  0  0  0  0  0  0  0
  -10.0056  -16.8277   11.8100 N   0  0  0  0  0  0  0  0  0  0  0  0
  -10.4425  -18.0996   11.5926 C   0  0  0  0  0  0  0  0  0  0  0  0
   -9.3593  -18.8417   11.2349 C   0  0  0  0  0  0  0  0  0  0  0  0
   -8.2979  -18.0165   11.2343 O   0  0  0  0  0  0  0  0  0  0  0  0
  -11.8281  -18.5820   11.7231 C   0  0  0  0  0  0  0  0  0  0  0  0
  -12.5756  -18.0702   12.5330 O   0  0  0  0  0  0  0  0  0  0  0  0
  -12.2662  -19.5908   10.9447 O   0  0  0  0  0  0  0  0  0  0  0  0
  -13.7034  -19.7266   10.7883 C   0  0  0  0  0  0  0  0  0  0  0  0
  -14.1085  -21.1811   11.0330 C   0  0  0  0  0  0  0  0  0  0  0  0
  1  2  1  0
  1 11  1  0
  2  3  2  0
  2  4  1  0
  4  5  2  0
  4  9  1  0
  5  6  1  0
  6  7  2  0
  7  8  1  0
  8  9  2  0
  8 10  1  0
 11 12  2  0
 11 15  1  0
 12 13  1  0
 13 14  2  0
 13 16  1  0
 14 15  1  0
 16 17  2  0
 16 18  1  0
 18 19  1  0
 19 20  1  0
M  END
>  <Gold.Gold.Protein.RotatedWaterAtoms>  (562) 


>  <Gold.Id.Protein>  (562) 


>  <Gold.PLP.Chemscore.CHOScore>  (562) 
0.0000

>  <Gold.PLP.Chemscore.Hbond>  (562) 
1.8804

>  <Gold.PLP.Chemscore.Internal.Correction>  (562) 
0.0487

>  <Gold.PLP.Chemscore.Metal>  (562) 
0.0000

>  <Gold.PLP.Fitness>  (562) 
63.5492

>  <Gold.PLP.PLP>  (562) 
-60.2472

>  <Gold.PLP.ligand.clash>  (562) 
0.0000

>  <Gold.PLP.ligand.torsion>  (562) 
1.1940

>  <Gold.PLP.part.buried>  (562) 
-10.3103

>  <Gold.PLP.part.hbond>  (562) 
-2.8911

>  <Gold.PLP.part.metal>  (562) 
0.0000

>  <Gold.PLP.part.nonpolar>  (562) 
-47.8533

>  <Gold.PLP.part.repulsive>  (562) 
0.3292

>  <Gold.Protein.RotatedAtoms>  (562) 


>  <Gold.Protein.RotatedTorsions>  (562) 


>  <Gold.Protein.RotatedWaterAtoms>  (562) 


>  <Gold.Version>  (562) 
5.3.0

>  <PLP.Chemscore.CHOScore>  (562) 


>  <PLP.Chemscore.Hbond>  (562) 


>  <PLP.Chemscore.Internal.Correction>  (562) 


>  <PLP.Chemscore.Metal>  (562) 


>  <PLP.Fitness>  (562) 


>  <PLP.PLP>  (562) 


>  <PLP.ligand.clash>  (562) 


>  <PLP.ligand.torsion>  (562) 


>  <PLP.part.buried>  (562) 


>  <PLP.part.hbond>  (562) 


>  <PLP.part.metal>  (562) 


>  <PLP.part.nonpolar>  (562) 


>  <PLP.part.repulsive>  (562) 


>  <Version>  (562) 


$$$$
3562|Compound_2163|Compounds_3D_F|sdf|637|dock1|1
     RDKit          3D

 27 29  0  0  0  0  0  0  0  0999 V2000
   -9.4697  -21.2845    9.9535 O   0  0  0  0  0  0  0  0  0  0  0  0
   -9.9250  -20.0754   10.3539 C   0  0  0  0  0  0  0  0  0  0  0  0
  -11.3125  -19.7805   10.3379 C   0  0  0  0  0  0  0  0  0  0  0  0
  -12.2159  -20.6708    9.9327 N   0  0  0  0  0  0  0  0  0  0  0  0
  -13.4907  -20.3498    9.9366 C   0  0  0  0  0  0  0  0  0  0  0  0
  -13.9055  -19.0868   10.3612 C   0  0  0  0  0  0  0  0  0  0  0  0
  -13.0299  -18.1918   10.7648 N   0  0  0  0  0  0  0  0  0  0  0  0
  -11.7296  -18.4964   10.7688 C   0  0  0  0  0  0  0  0  0  0  0  0
  -10.8016  -17.6195   11.1722 N   0  0  0  0  0  0  0  0  0  0  0  0
   -9.5242  -17.9473   11.1663 C   0  0  0  0  0  0  0  0  0  0  0  0
   -9.0887  -19.1421   10.7739 N   0  0  0  0  0  0  0  0  0  0  0  0
   -8.5955  -17.0100   11.5917 N   0  0  0  0  0  0  0  0  0  0  0  0
   -8.7480  -15.7116   11.2625 C   0  0  0  0  0  0  0  0  0  0  0  0
   -9.7003  -15.3631   10.5920 O   0  0  0  0  0  0  0  0  0  0  0  0
   -7.7573  -14.7132   11.7168 C   0  0  0  0  0  0  0  0  0  0  0  0
   -6.5425  -15.1290   12.2641 C   0  0  0  0  0  0  0  0  0  0  0  0
   -5.6227  -14.1915   12.6860 C   0  0  0  0  0  0  0  0  0  0  0  0
   -5.9020  -12.8419   12.5667 C   0  0  0  0  0  0  0  0  0  0  0  0
   -7.1039  -12.4223   12.0239 C   0  0  0  0  0  0  0  0  0  0  0  0
   -8.0303  -13.3492   11.5940 C   0  0  0  0  0  0  0  0  0  0  0  0
   -7.3989  -10.9502   11.8975 C   0  0  0  0  0  0  0  0  0  0  0  0
  -14.5144  -21.3560    9.4786 C   0  0  0  0  0  0  0  0  0  0  0  0
  -14.4372  -22.5227   10.2996 O   0  0  0  0  0  0  0  0  0  0  0  0
  -14.2384  -21.7373    8.0227 C   0  0  0  0  0  0  0  0  0  0  0  0
  -14.4972  -20.6142    7.1786 O   0  0  0  0  0  0  0  0  0  0  0  0
  -15.1485  -22.8994    7.6182 C   0  0  0  0  0  0  0  0  0  0  0  0
  -16.4464  -22.3978    7.2937 O   0  0  0  0  0  0  0  0  0  0  0  0
  1  2  1  0
  2  3  2  0
  2 11  1  0
  3  4  1  0
  3  8  1  0
  4  5  2  0
  5  6  1  0
  5 22  1  0
  6  7  2  0
  7  8  1  0
  8  9  2  0
  9 10  1  0
 10 11  2  0
 10 12  1  0
 12 13  1  0
 13 14  2  0
 13 15  1  0
 15 16  2  0
 15 20  1  0
 16 17  1  0
 17 18  2  0
 18 19  1  0
 19 20  2  0
 19 21  1  0
 22 23  1  0
 22 24  1  0
 24 25  1  0
 24 26  1  0
 26 27  1  0
M  END
>  <Gold.Gold.Protein.RotatedWaterAtoms>  (563) 


>  <Gold.Id.Protein>  (563) 


>  <Gold.PLP.Chemscore.CHOScore>  (563) 
0.0000

>  <Gold.PLP.Chemscore.Hbond>  (563) 
2.9092

>  <Gold.PLP.Chemscore.Internal.Correction>  (563) 
0.5121

>  <Gold.PLP.Chemscore.Metal>  (563) 
0.0000

>  <Gold.PLP.Fitness>  (563) 
70.6133

>  <Gold.PLP.PLP>  (563) 
-62.6212

>  <Gold.PLP.ligand.clash>  (563) 
0.0000

>  <Gold.PLP.ligand.torsion>  (563) 
0.6238

>  <Gold.PLP.part.buried>  (563) 
-10.0581

>  <Gold.PLP.part.hbond>  (563) 
-4.2662

>  <Gold.PLP.part.metal>  (563) 
0.0000

>  <Gold.PLP.part.nonpolar>  (563) 
-47.9716

>  <Gold.PLP.part.repulsive>  (563) 
0.1903

>  <Gold.Protein.RotatedAtoms>  (563) 


>  <Gold.Protein.RotatedTorsions>  (563) 


>  <Gold.Protein.RotatedWaterAtoms>  (563) 


>  <Gold.Version>  (563) 
5.3.0

>  <PLP.Chemscore.CHOScore>  (563) 


>  <PLP.Chemscore.Hbond>  (563) 


>  <PLP.Chemscore.Internal.Correction>  (563) 


>  <PLP.Chemscore.Metal>  (563) 


>  <PLP.Fitness>  (563) 


>  <PLP.PLP>  (563) 


>  <PLP.ligand.clash>  (563) 


>  <PLP.ligand.torsion>  (563) 


>  <PLP.part.buried>  (563) 


>  <PLP.part.hbond>  (563) 


>  <PLP.part.metal>  (563) 


>  <PLP.part.nonpolar>  (563) 


>  <PLP.part.repulsive>  (563) 


>  <Version>  (563) 


$$$$
3563|Compound_2163|Compounds_3D_F|sdf|637|dock2|1
     RDKit          3D

 27 29  0  0  0  0  0  0  0  0999 V2000
   -9.2812  -19.4620    8.7231 O   0  0  0  0  0  0  0  0  0  0  0  0
   -9.5831  -18.6454    9.7583 C   0  0  0  0  0  0  0  0  0  0  0  0
  -10.7881  -18.8134   10.4879 C   0  0  0  0  0  0  0  0  0  0  0  0
  -11.6636  -19.7709   10.1886 N   0  0  0  0  0  0  0  0  0  0  0  0
  -12.7663  -19.8861   10.8950 C   0  0  0  0  0  0  0  0  0  0  0  0
  -13.0273  -19.0159   11.9543 C   0  0  0  0  0  0  0  0  0  0  0  0
  -12.1764  -18.0625   12.2668 N   0  0  0  0  0  0  0  0  0  0  0  0
  -11.0499  -17.9270   11.5622 C   0  0  0  0  0  0  0  0  0  0  0  0
  -10.1532  -16.9731   11.8435 N   0  0  0  0  0  0  0  0  0  0  0  0
   -9.0487  -16.8626   11.1314 C   0  0  0  0  0  0  0  0  0  0  0  0
   -8.7608  -17.6751   10.1174 N   0  0  0  0  0  0  0  0  0  0  0  0
   -8.1465  -15.8612   11.4555 N   0  0  0  0  0  0  0  0  0  0  0  0
   -8.5443  -14.5732   11.4695 C   0  0  0  0  0  0  0  0  0  0  0  0
   -9.6949  -14.2902   11.1974 O   0  0  0  0  0  0  0  0  0  0  0  0
   -7.5814  -13.5065   11.8154 C   0  0  0  0  0  0  0  0  0  0  0  0
   -6.2986  -13.8353   12.2561 C   0  0  0  0  0  0  0  0  0  0  0  0
   -5.4052  -12.8344   12.5773 C   0  0  0  0  0  0  0  0  0  0  0  0
   -5.7784  -11.5072   12.4623 C   0  0  0  0  0  0  0  0  0  0  0  0
   -7.0483  -11.1738   12.0248 C   0  0  0  0  0  0  0  0  0  0  0  0
   -7.9495  -12.1647   11.6961 C   0  0  0  0  0  0  0  0  0  0  0  0
   -7.4454   -9.7256   11.9022 C   0  0  0  0  0  0  0  0  0  0  0  0
  -13.7581  -20.9691   10.5579 C   0  0  0  0  0  0  0  0  0  0  0  0
  -13.2265  -22.2388   10.9407 O   0  0  0  0  0  0  0  0  0  0  0  0
  -14.0283  -20.9620    9.0519 C   0  0  0  0  0  0  0  0  0  0  0  0
  -14.4327  -19.6532    8.6464 O   0  0  0  0  0  0  0  0  0  0  0  0
  -15.1404  -21.9623    8.7283 C   0  0  0  0  0  0  0  0  0  0  0  0
  -15.6106  -21.7384    7.3978 O   0  0  0  0  0  0  0  0  0  0  0  0
  1  2  1  0
  2  3  2  0
  2 11  1  0
  3  4  1  0
  3  8  1  0
  4  5  2  0
  5  6  1  0
  5 22  1  0
  6  7  2  0
  7  8  1  0
  8  9  2  0
  9 10  1  0
 10 11  2  0
 10 12  1  0
 12 13  1  0
 13 14  2  0
 13 15  1  0
 15 16  2  0
 15 20  1  0
 16 17  1  0
 17 18  2  0
 18 19  1  0
 19 20  2  0
 19 21  1  0
 22 23  1  0
 22 24  1  0
 24 25  1  0
 24 26  1  0
 26 27  1  0
M  END
>  <Gold.Gold.Protein.RotatedWaterAtoms>  (564) 


>  <Gold.Id.Protein>  (564) 


>  <Gold.PLP.Chemscore.CHOScore>  (564) 
0.9829

>  <Gold.PLP.Chemscore.Hbond>  (564) 
3.3643

>  <Gold.PLP.Chemscore.Internal.Correction>  (564) 
0.5121

>  <Gold.PLP.Chemscore.Metal>  (564) 
0.0000

>  <Gold.PLP.Fitness>  (564) 
75.6300

>  <Gold.PLP.PLP>  (564) 
-63.9222

>  <Gold.PLP.ligand.clash>  (564) 
0.0000

>  <Gold.PLP.ligand.torsion>  (564) 
0.9230

>  <Gold.PLP.part.buried>  (564) 
-9.6327

>  <Gold.PLP.part.hbond>  (564) 
-7.2067

>  <Gold.PLP.part.metal>  (564) 
0.0000

>  <Gold.PLP.part.nonpolar>  (564) 
-49.0353

>  <Gold.PLP.part.repulsive>  (564) 
0.2537

>  <Gold.Protein.RotatedAtoms>  (564) 


>  <Gold.Protein.RotatedTorsions>  (564) 


>  <Gold.Protein.RotatedWaterAtoms>  (564) 


>  <Gold.Version>  (564) 
5.3.0

>  <PLP.Chemscore.CHOScore>  (564) 


>  <PLP.Chemscore.Hbond>  (564) 


>  <PLP.Chemscore.Internal.Correction>  (564) 


>  <PLP.Chemscore.Metal>  (564) 


>  <PLP.Fitness>  (564) 


>  <PLP.PLP>  (564) 


>  <PLP.ligand.clash>  (564) 


>  <PLP.ligand.torsion>  (564) 


>  <PLP.part.buried>  (564) 


>  <PLP.part.hbond>  (564) 


>  <PLP.part.metal>  (564) 


>  <PLP.part.nonpolar>  (564) 


>  <PLP.part.repulsive>  (564) 


>  <Version>  (564) 


$$$$
3564|Compound_2163|Compounds_3D_F|sdf|637|dock3|1
     RDKit          3D

 27 29  0  0  0  0  0  0  0  0999 V2000
   -9.2236  -20.2126    9.1213 O   0  0  0  0  0  0  0  0  0  0  0  0
   -9.6869  -19.2984   10.0040 C   0  0  0  0  0  0  0  0  0  0  0  0
  -11.0173  -19.3692   10.4912 C   0  0  0  0  0  0  0  0  0  0  0  0
  -11.8575  -20.3273   10.1051 N   0  0  0  0  0  0  0  0  0  0  0  0
  -13.0810  -20.3503   10.5856 C   0  0  0  0  0  0  0  0  0  0  0  0
  -13.5067  -19.3816   11.4956 C   0  0  0  0  0  0  0  0  0  0  0  0
  -12.6933  -18.4257   11.8900 N   0  0  0  0  0  0  0  0  0  0  0  0
  -11.4461  -18.3831   11.4143 C   0  0  0  0  0  0  0  0  0  0  0  0
  -10.5819  -17.4308   11.7874 N   0  0  0  0  0  0  0  0  0  0  0  0
   -9.3557  -17.4131   11.3021 C   0  0  0  0  0  0  0  0  0  0  0  0
   -8.9100  -18.3208   10.4369 N   0  0  0  0  0  0  0  0  0  0  0  0
   -8.4923  -16.4097   11.7141 N   0  0  0  0  0  0  0  0  0  0  0  0
   -8.6392  -15.1564   11.2399 C   0  0  0  0  0  0  0  0  0  0  0  0
   -9.5291  -14.9064   10.4503 O   0  0  0  0  0  0  0  0  0  0  0  0
   -7.7181  -14.0875   11.6801 C   0  0  0  0  0  0  0  0  0  0  0  0
   -6.4858  -14.4134   12.2487 C   0  0  0  0  0  0  0  0  0  0  0  0
   -5.6313  -13.4104   12.6573 C   0  0  0  0  0  0  0  0  0  0  0  0
   -5.9934  -12.0841   12.5037 C   0  0  0  0  0  0  0  0  0  0  0  0
   -7.2131  -11.7535   11.9396 C   0  0  0  0  0  0  0  0  0  0  0  0
   -8.0747  -12.7465   11.5226 C   0  0  0  0  0  0  0  0  0  0  0  0
   -7.5984  -10.3062   11.7758 C   0  0  0  0  0  0  0  0  0  0  0  0
  -14.0330  -21.4337   10.1499 C   0  0  0  0  0  0  0  0  0  0  0  0
  -13.5169  -22.7075   10.5402 O   0  0  0  0  0  0  0  0  0  0  0  0
  -14.1914  -21.3916    8.6286 C   0  0  0  0  0  0  0  0  0  0  0  0
  -14.8757  -20.1949    8.2537 O   0  0  0  0  0  0  0  0  0  0  0  0
  -14.9986  -22.6067    8.1658 C   0  0  0  0  0  0  0  0  0  0  0  0
  -15.9777  -22.1930    7.2110 O   0  0  0  0  0  0  0  0  0  0  0  0
  1  2  1  0
  2  3  2  0
  2 11  1  0
  3  4  1  0
  3  8  1  0
  4  5  2  0
  5  6  1  0
  5 22  1  0
  6  7  2  0
  7  8  1  0
  8  9  2  0
  9 10  1  0
 10 11  2  0
 10 12  1  0
 12 13  1  0
 13 14  2  0
 13 15  1  0
 15 16  2  0
 15 20  1  0
 16 17  1  0
 17 18  2  0
 18 19  1  0
 19 20  2  0
 19 21  1  0
 22 23  1  0
 22 24  1  0
 24 25  1  0
 24 26  1  0
 26 27  1  0
M  END
>  <Gold.Gold.Protein.RotatedWaterAtoms>  (565) 


>  <Gold.Id.Protein>  (565) 


>  <Gold.PLP.Chemscore.CHOScore>  (565) 
1.0000

>  <Gold.PLP.Chemscore.Hbond>  (565) 
3.6012

>  <Gold.PLP.Chemscore.Internal.Correction>  (565) 
0.5121

>  <Gold.PLP.Chemscore.Metal>  (565) 
0.0000

>  <Gold.PLP.Fitness>  (565) 
72.1851

>  <Gold.PLP.PLP>  (565) 
-60.9909

>  <Gold.PLP.ligand.clash>  (565) 
0.0000

>  <Gold.PLP.ligand.torsion>  (565) 
1.5608

>  <Gold.PLP.part.buried>  (565) 
-8.3694

>  <Gold.PLP.part.hbond>  (565) 
-5.8807

>  <Gold.PLP.part.metal>  (565) 
0.0000

>  <Gold.PLP.part.nonpolar>  (565) 
-47.7034

>  <Gold.PLP.part.repulsive>  (565) 
1.1868

>  <Gold.Protein.RotatedAtoms>  (565) 


>  <Gold.Protein.RotatedTorsions>  (565) 


>  <Gold.Protein.RotatedWaterAtoms>  (565) 


>  <Gold.Version>  (565) 
5.3.0

>  <PLP.Chemscore.CHOScore>  (565) 


>  <PLP.Chemscore.Hbond>  (565) 


>  <PLP.Chemscore.Internal.Correction>  (565) 


>  <PLP.Chemscore.Metal>  (565) 


>  <PLP.Fitness>  (565) 


>  <PLP.PLP>  (565) 


>  <PLP.ligand.clash>  (565) 


>  <PLP.ligand.torsion>  (565) 


>  <PLP.part.buried>  (565) 


>  <PLP.part.hbond>  (565) 


>  <PLP.part.metal>  (565) 


>  <PLP.part.nonpolar>  (565) 


>  <PLP.part.repulsive>  (565) 


>  <Version>  (565) 


$$$$
3565|Compound_2164|Compounds_3D_F|sdf|638|dock1|1
     RDKit          3D

 19 20  0  0  0  0  0  0  0  0999 V2000
   -8.3599  -15.6311   11.9550 N   0  0  0  0  0  0  0  0  0  0  0  0
   -8.8170  -14.3720   12.1064 C   0  0  0  0  0  0  0  0  0  0  0  0
  -10.0100  -14.1679   12.2147 O   0  0  0  0  0  0  0  0  0  0  0  0
   -7.8665  -13.2402   12.1406 C   0  0  0  0  0  0  0  0  0  0  0  0
   -6.5221  -13.4628   12.4447 C   0  0  0  0  0  0  0  0  0  0  0  0
   -5.6407  -12.4013   12.4747 C   0  0  0  0  0  0  0  0  0  0  0  0
   -6.0864  -11.1205   12.2045 C   0  0  0  0  0  0  0  0  0  0  0  0
   -7.4177  -10.8934   11.9015 C   0  0  0  0  0  0  0  0  0  0  0  0
   -8.3078  -11.9457   11.8623 C   0  0  0  0  0  0  0  0  0  0  0  0
   -7.8938   -9.4937   11.6083 C   0  0  0  0  0  0  0  0  0  0  0  0
   -9.2559  -16.6986   11.9176 C   0  0  0  0  0  0  0  0  0  0  0  0
  -10.4904  -16.7029   12.3464 N   0  0  0  0  0  0  0  0  0  0  0  0
  -11.0140  -17.7795   12.1764 O   0  0  0  0  0  0  0  0  0  0  0  0
  -10.1776  -18.6541   11.6000 C   0  0  0  0  0  0  0  0  0  0  0  0
   -9.0106  -17.9989   11.4006 C   0  0  0  0  0  0  0  0  0  0  0  0
  -10.4799  -20.0858   11.2378 C   0  0  0  0  0  0  0  0  0  0  0  0
  -11.5695  -20.1203   10.1650 C   0  0  0  0  0  0  0  0  0  0  0  0
   -9.2128  -20.7537   10.7003 C   0  0  0  0  0  0  0  0  0  0  0  0
  -10.9637  -20.8351   12.4807 C   0  0  0  0  0  0  0  0  0  0  0  0
  1  2  1  0
  1 11  1  0
  2  3  2  0
  2  4  1  0
  4  5  2  0
  4  9  1  0
  5  6  1  0
  6  7  2  0
  7  8  1  0
  8  9  2  0
  8 10  1  0
 11 12  2  0
 11 15  1  0
 12 13  1  0
 13 14  1  0
 14 15  2  0
 14 16  1  0
 16 17  1  0
 16 18  1  0
 16 19  1  0
M  END
>  <Gold.Gold.Protein.RotatedWaterAtoms>  (566) 


>  <Gold.Id.Protein>  (566) 


>  <Gold.PLP.Chemscore.CHOScore>  (566) 
0.0000

>  <Gold.PLP.Chemscore.Hbond>  (566) 
1.4154

>  <Gold.PLP.Chemscore.Internal.Correction>  (566) 
0.0018

>  <Gold.PLP.Chemscore.Metal>  (566) 
0.0000

>  <Gold.PLP.Fitness>  (566) 
63.1157

>  <Gold.PLP.PLP>  (566) 
-59.5222

>  <Gold.PLP.ligand.clash>  (566) 
0.0000

>  <Gold.PLP.ligand.torsion>  (566) 
0.3272

>  <Gold.PLP.part.buried>  (566) 
-8.3300

>  <Gold.PLP.part.hbond>  (566) 
-4.2187

>  <Gold.PLP.part.metal>  (566) 
0.0000

>  <Gold.PLP.part.nonpolar>  (566) 
-48.1643

>  <Gold.PLP.part.repulsive>  (566) 
0.2926

>  <Gold.Protein.RotatedAtoms>  (566) 


>  <Gold.Protein.RotatedTorsions>  (566) 


>  <Gold.Protein.RotatedWaterAtoms>  (566) 


>  <Gold.Version>  (566) 
5.3.0

>  <PLP.Chemscore.CHOScore>  (566) 


>  <PLP.Chemscore.Hbond>  (566) 


>  <PLP.Chemscore.Internal.Correction>  (566) 


>  <PLP.Chemscore.Metal>  (566) 


>  <PLP.Fitness>  (566) 


>  <PLP.PLP>  (566) 


>  <PLP.ligand.clash>  (566) 


>  <PLP.ligand.torsion>  (566) 


>  <PLP.part.buried>  (566) 


>  <PLP.part.hbond>  (566) 


>  <PLP.part.metal>  (566) 


>  <PLP.part.nonpolar>  (566) 


>  <PLP.part.repulsive>  (566) 


>  <Version>  (566) 


$$$$
3566|Compound_2164|Compounds_3D_F|sdf|638|dock2|1
     RDKit          3D

 19 20  0  0  0  0  0  0  0  0999 V2000
   -8.6461  -15.4883   12.1440 N   0  0  0  0  0  0  0  0  0  0  0  0
   -8.9927  -14.1865   12.1925 C   0  0  0  0  0  0  0  0  0  0  0  0
  -10.1655  -13.8716   12.2357 O   0  0  0  0  0  0  0  0  0  0  0  0
   -7.9456  -13.1429   12.1934 C   0  0  0  0  0  0  0  0  0  0  0  0
   -6.6208  -13.4792   12.4783 C   0  0  0  0  0  0  0  0  0  0  0  0
   -5.6488  -12.4996   12.4771 C   0  0  0  0  0  0  0  0  0  0  0  0
   -5.9847  -11.1882   12.1949 C   0  0  0  0  0  0  0  0  0  0  0  0
   -7.2960  -10.8484   11.9108 C   0  0  0  0  0  0  0  0  0  0  0  0
   -8.2760  -11.8183   11.9028 C   0  0  0  0  0  0  0  0  0  0  0  0
   -7.6521   -9.4164   11.6042 C   0  0  0  0  0  0  0  0  0  0  0  0
   -9.6330  -16.4730   12.1381 C   0  0  0  0  0  0  0  0  0  0  0  0
  -10.8239  -16.3944   12.6705 N   0  0  0  0  0  0  0  0  0  0  0  0
  -11.4527  -17.4131   12.5003 O   0  0  0  0  0  0  0  0  0  0  0  0
  -10.7467  -18.3254   11.8176 C   0  0  0  0  0  0  0  0  0  0  0  0
   -9.5466  -17.7621   11.5471 C   0  0  0  0  0  0  0  0  0  0  0  0
  -11.2030  -19.7066   11.4221 C   0  0  0  0  0  0  0  0  0  0  0  0
  -11.1749  -19.8351    9.8983 C   0  0  0  0  0  0  0  0  0  0  0  0
  -10.2680  -20.7483   12.0396 C   0  0  0  0  0  0  0  0  0  0  0  0
  -12.6285  -19.9371   11.9273 C   0  0  0  0  0  0  0  0  0  0  0  0
  1  2  1  0
  1 11  1  0
  2  3  2  0
  2  4  1  0
  4  5  2  0
  4  9  1  0
  5  6  1  0
  6  7  2  0
  7  8  1  0
  8  9  2  0
  8 10  1  0
 11 12  2  0
 11 15  1  0
 12 13  1  0
 13 14  1  0
 14 15  2  0
 14 16  1  0
 16 17  1  0
 16 18  1  0
 16 19  1  0
M  END
>  <Gold.Gold.Protein.RotatedWaterAtoms>  (567) 


>  <Gold.Id.Protein>  (567) 


>  <Gold.PLP.Chemscore.CHOScore>  (567) 
0.0000

>  <Gold.PLP.Chemscore.Hbond>  (567) 
1.3780

>  <Gold.PLP.Chemscore.Internal.Correction>  (567) 
0.0018

>  <Gold.PLP.Chemscore.Metal>  (567) 
0.0000

>  <Gold.PLP.Fitness>  (567) 
60.4336

>  <Gold.PLP.PLP>  (567) 
-56.8759

>  <Gold.PLP.ligand.clash>  (567) 
0.0000

>  <Gold.PLP.ligand.torsion>  (567) 
0.2891

>  <Gold.PLP.part.buried>  (567) 
-2.3900

>  <Gold.PLP.part.hbond>  (567) 
-6.0775

>  <Gold.PLP.part.metal>  (567) 
0.0000

>  <Gold.PLP.part.nonpolar>  (567) 
-47.6041

>  <Gold.PLP.part.repulsive>  (567) 
0.4166

>  <Gold.Protein.RotatedAtoms>  (567) 


>  <Gold.Protein.RotatedTorsions>  (567) 


>  <Gold.Protein.RotatedWaterAtoms>  (567) 


>  <Gold.Version>  (567) 
5.3.0

>  <PLP.Chemscore.CHOScore>  (567) 


>  <PLP.Chemscore.Hbond>  (567) 


>  <PLP.Chemscore.Internal.Correction>  (567) 


>  <PLP.Chemscore.Metal>  (567) 


>  <PLP.Fitness>  (567) 


>  <PLP.PLP>  (567) 


>  <PLP.ligand.clash>  (567) 


>  <PLP.ligand.torsion>  (567) 


>  <PLP.part.buried>  (567) 


>  <PLP.part.hbond>  (567) 


>  <PLP.part.metal>  (567) 


>  <PLP.part.nonpolar>  (567) 


>  <PLP.part.repulsive>  (567) 


>  <Version>  (567) 


$$$$
3567|Compound_2164|Compounds_3D_F|sdf|638|dock3|1
     RDKit          3D

 19 20  0  0  0  0  0  0  0  0999 V2000
   -8.2848  -15.5633   12.0432 N   0  0  0  0  0  0  0  0  0  0  0  0
   -8.7307  -14.2916   12.0127 C   0  0  0  0  0  0  0  0  0  0  0  0
   -9.9223  -14.0676   11.9312 O   0  0  0  0  0  0  0  0  0  0  0  0
   -7.7697  -13.1701   12.0785 C   0  0  0  0  0  0  0  0  0  0  0  0
   -6.4189  -13.4182   12.3298 C   0  0  0  0  0  0  0  0  0  0  0  0
   -5.5278  -12.3662   12.3897 C   0  0  0  0  0  0  0  0  0  0  0  0
   -5.9701  -11.0696   12.2018 C   0  0  0  0  0  0  0  0  0  0  0  0
   -7.3077  -10.8171   11.9515 C   0  0  0  0  0  0  0  0  0  0  0  0
   -8.2078  -11.8594   11.8831 C   0  0  0  0  0  0  0  0  0  0  0  0
   -7.7800   -9.4004   11.7477 C   0  0  0  0  0  0  0  0  0  0  0  0
   -9.1900  -16.6216   11.9760 C   0  0  0  0  0  0  0  0  0  0  0  0
  -10.4298  -16.6217   12.3891 N   0  0  0  0  0  0  0  0  0  0  0  0
  -10.9610  -17.6903   12.1939 O   0  0  0  0  0  0  0  0  0  0  0  0
  -10.1253  -18.5627   11.6131 C   0  0  0  0  0  0  0  0  0  0  0  0
   -8.9499  -17.9151   11.4398 C   0  0  0  0  0  0  0  0  0  0  0  0
  -10.4361  -19.9850   11.2225 C   0  0  0  0  0  0  0  0  0  0  0  0
  -11.5328  -19.9922   10.1564 C   0  0  0  0  0  0  0  0  0  0  0  0
   -9.1753  -20.6465   10.6624 C   0  0  0  0  0  0  0  0  0  0  0  0
  -10.9150  -20.7587   12.4523 C   0  0  0  0  0  0  0  0  0  0  0  0
  1  2  1  0
  1 11  1  0
  2  3  2  0
  2  4  1  0
  4  5  2  0
  4  9  1  0
  5  6  1  0
  6  7  2  0
  7  8  1  0
  8  9  2  0
  8 10  1  0
 11 12  2  0
 11 15  1  0
 12 13  1  0
 13 14  1  0
 14 15  2  0
 14 16  1  0
 16 17  1  0
 16 18  1  0
 16 19  1  0
M  END
>  <Gold.Gold.Protein.RotatedWaterAtoms>  (568) 


>  <Gold.Id.Protein>  (568) 


>  <Gold.PLP.Chemscore.CHOScore>  (568) 
0.0000

>  <Gold.PLP.Chemscore.Hbond>  (568) 
1.5184

>  <Gold.PLP.Chemscore.Internal.Correction>  (568) 
0.0018

>  <Gold.PLP.Chemscore.Metal>  (568) 
0.0000

>  <Gold.PLP.Fitness>  (568) 
62.7308

>  <Gold.PLP.PLP>  (568) 
-58.6454

>  <Gold.PLP.ligand.clash>  (568) 
0.0000

>  <Gold.PLP.ligand.torsion>  (568) 
0.2358

>  <Gold.PLP.part.buried>  (568) 
-9.5527

>  <Gold.PLP.part.hbond>  (568) 
-3.8157

>  <Gold.PLP.part.metal>  (568) 
0.0000

>  <Gold.PLP.part.nonpolar>  (568) 
-47.5392

>  <Gold.PLP.part.repulsive>  (568) 
0.3106

>  <Gold.Protein.RotatedAtoms>  (568) 


>  <Gold.Protein.RotatedTorsions>  (568) 


>  <Gold.Protein.RotatedWaterAtoms>  (568) 


>  <Gold.Version>  (568) 
5.3.0

>  <PLP.Chemscore.CHOScore>  (568) 


>  <PLP.Chemscore.Hbond>  (568) 


>  <PLP.Chemscore.Internal.Correction>  (568) 


>  <PLP.Chemscore.Metal>  (568) 


>  <PLP.Fitness>  (568) 


>  <PLP.PLP>  (568) 


>  <PLP.ligand.clash>  (568) 


>  <PLP.ligand.torsion>  (568) 


>  <PLP.part.buried>  (568) 


>  <PLP.part.hbond>  (568) 


>  <PLP.part.metal>  (568) 


>  <PLP.part.nonpolar>  (568) 


>  <PLP.part.repulsive>  (568) 


>  <Version>  (568) 


$$$$
3568|Compound_2172|Compounds_3D_F|sdf|639|dock1|1
     RDKit          3D

 23 25  0  0  0  0  0  0  0  0999 V2000
  -12.5854  -23.0971   12.3411 O   0  0  0  0  0  0  0  0  0  0  0  0
  -13.3573  -22.0120   12.5463 C   0  0  0  0  0  0  0  0  0  0  0  0
  -14.5382  -22.1457   12.8000 O   0  0  0  0  0  0  0  0  0  0  0  0
  -12.7685  -20.6611   12.4620 C   0  0  0  0  0  0  0  0  0  0  0  0
  -11.5145  -20.3784   12.1703 N   0  0  0  0  0  0  0  0  0  0  0  0
  -11.3350  -19.0613   12.1842 C   0  0  0  0  0  0  0  0  0  0  0  0
  -12.4736  -18.4743   12.4867 N   0  0  0  0  0  0  0  0  0  0  0  0
  -13.4225  -19.4936   12.6669 N   0  0  0  0  0  0  0  0  0  0  0  0
  -10.1288  -18.4044   11.9202 N   0  0  0  0  0  0  0  0  0  0  0  0
  -10.0013  -17.0921   12.1988 C   0  0  0  0  0  0  0  0  0  0  0  0
  -10.9351  -16.4793   12.6794 O   0  0  0  0  0  0  0  0  0  0  0  0
   -8.7274  -16.3977   11.9199 C   0  0  0  0  0  0  0  0  0  0  0  0
   -8.6600  -15.0075   11.9841 C   0  0  0  0  0  0  0  0  0  0  0  0
   -7.4566  -14.3614   11.7213 C   0  0  0  0  0  0  0  0  0  0  0  0
   -6.3246  -15.1069   11.3951 C   0  0  0  0  0  0  0  0  0  0  0  0
   -6.3951  -16.4856   11.3323 C   0  0  0  0  0  0  0  0  0  0  0  0
   -7.5851  -17.1336   11.5970 C   0  0  0  0  0  0  0  0  0  0  0  0
   -7.3779  -12.8807   11.7870 C   0  0  0  0  0  0  0  0  0  0  0  0
   -6.1913  -12.2603   12.1743 C   0  0  0  0  0  0  0  0  0  0  0  0
   -6.1239  -10.8832   12.2334 C   0  0  0  0  0  0  0  0  0  0  0  0
   -7.2296  -10.1192   11.9089 C   0  0  0  0  0  0  0  0  0  0  0  0
   -8.4091  -10.7298   11.5231 C   0  0  0  0  0  0  0  0  0  0  0  0
   -8.4873  -12.1057   11.4553 C   0  0  0  0  0  0  0  0  0  0  0  0
  1  2  1  0
  2  3  2  0
  2  4  1  0
  4  5  2  0
  4  8  1  0
  5  6  1  0
  6  7  2  0
  6  9  1  0
  7  8  1  0
  9 10  1  0
 10 11  2  0
 10 12  1  0
 12 13  2  0
 12 17  1  0
 13 14  1  0
 14 15  2  0
 14 18  1  0
 15 16  1  0
 16 17  2  0
 18 19  2  0
 18 23  1  0
 19 20  1  0
 20 21  2  0
 21 22  1  0
 22 23  2  0
M  END
>  <Gold.Gold.Protein.RotatedWaterAtoms>  (569) 


>  <Gold.Id.Protein>  (569) 


>  <Gold.PLP.Chemscore.CHOScore>  (569) 
0.0000

>  <Gold.PLP.Chemscore.Hbond>  (569) 
4.2005

>  <Gold.PLP.Chemscore.Internal.Correction>  (569) 
0.0074

>  <Gold.PLP.Chemscore.Metal>  (569) 
0.0000

>  <Gold.PLP.Fitness>  (569) 
68.8393

>  <Gold.PLP.PLP>  (569) 
-57.2373

>  <Gold.PLP.ligand.clash>  (569) 
0.0000

>  <Gold.PLP.ligand.torsion>  (569) 
0.5034

>  <Gold.PLP.part.buried>  (569) 
-8.1895

>  <Gold.PLP.part.hbond>  (569) 
-5.4014

>  <Gold.PLP.part.metal>  (569) 
0.0000

>  <Gold.PLP.part.nonpolar>  (569) 
-46.2822

>  <Gold.PLP.part.repulsive>  (569) 
0.4931

>  <Gold.Protein.RotatedAtoms>  (569) 


>  <Gold.Protein.RotatedTorsions>  (569) 


>  <Gold.Protein.RotatedWaterAtoms>  (569) 


>  <Gold.Version>  (569) 
5.3.0

>  <PLP.Chemscore.CHOScore>  (569) 


>  <PLP.Chemscore.Hbond>  (569) 


>  <PLP.Chemscore.Internal.Correction>  (569) 


>  <PLP.Chemscore.Metal>  (569) 


>  <PLP.Fitness>  (569) 


>  <PLP.PLP>  (569) 


>  <PLP.ligand.clash>  (569) 


>  <PLP.ligand.torsion>  (569) 


>  <PLP.part.buried>  (569) 


>  <PLP.part.hbond>  (569) 


>  <PLP.part.metal>  (569) 


>  <PLP.part.nonpolar>  (569) 


>  <PLP.part.repulsive>  (569) 


>  <Version>  (569) 


$$$$
3569|Compound_2172|Compounds_3D_F|sdf|639|dock2|1
     RDKit          3D

 23 25  0  0  0  0  0  0  0  0999 V2000
  -13.8913  -19.3872    8.3054 O   0  0  0  0  0  0  0  0  0  0  0  0
  -14.2001  -19.5494    9.6068 C   0  0  0  0  0  0  0  0  0  0  0  0
  -15.1637  -20.2185    9.9238 O   0  0  0  0  0  0  0  0  0  0  0  0
  -13.3683  -18.9134   10.6473 C   0  0  0  0  0  0  0  0  0  0  0  0
  -12.2375  -18.2662   10.4480 N   0  0  0  0  0  0  0  0  0  0  0  0
  -11.7603  -17.8260   11.6081 C   0  0  0  0  0  0  0  0  0  0  0  0
  -12.5784  -18.1849   12.5746 N   0  0  0  0  0  0  0  0  0  0  0  0
  -13.6347  -18.8889   11.9744 N   0  0  0  0  0  0  0  0  0  0  0  0
  -10.5775  -17.0984   11.7747 N   0  0  0  0  0  0  0  0  0  0  0  0
   -9.4417  -17.5136   11.1801 C   0  0  0  0  0  0  0  0  0  0  0  0
   -9.4453  -18.5208   10.4990 O   0  0  0  0  0  0  0  0  0  0  0  0
   -8.1920  -16.7455   11.3560 C   0  0  0  0  0  0  0  0  0  0  0  0
   -8.2355  -15.3587   11.4845 C   0  0  0  0  0  0  0  0  0  0  0  0
   -7.0545  -14.6430   11.6510 C   0  0  0  0  0  0  0  0  0  0  0  0
   -5.8339  -15.3157   11.6884 C   0  0  0  0  0  0  0  0  0  0  0  0
   -5.7945  -16.6911   11.5606 C   0  0  0  0  0  0  0  0  0  0  0  0
   -6.9633  -17.4082   11.4002 C   0  0  0  0  0  0  0  0  0  0  0  0
   -7.0935  -13.1657   11.7876 C   0  0  0  0  0  0  0  0  0  0  0  0
   -5.9683  -12.4750   12.2348 C   0  0  0  0  0  0  0  0  0  0  0  0
   -6.0103  -11.1014   12.3597 C   0  0  0  0  0  0  0  0  0  0  0  0
   -7.1647  -10.4100   12.0416 C   0  0  0  0  0  0  0  0  0  0  0  0
   -8.2836  -11.0904   11.5966 C   0  0  0  0  0  0  0  0  0  0  0  0
   -8.2522  -12.4633   11.4627 C   0  0  0  0  0  0  0  0  0  0  0  0
  1  2  1  0
  2  3  2  0
  2  4  1  0
  4  5  2  0
  4  8  1  0
  5  6  1  0
  6  7  2  0
  6  9  1  0
  7  8  1  0
  9 10  1  0
 10 11  2  0
 10 12  1  0
 12 13  2  0
 12 17  1  0
 13 14  1  0
 14 15  2  0
 14 18  1  0
 15 16  1  0
 16 17  2  0
 18 19  2  0
 18 23  1  0
 19 20  1  0
 20 21  2  0
 21 22  1  0
 22 23  2  0
M  END
>  <Gold.Gold.Protein.RotatedWaterAtoms>  (570) 


>  <Gold.Id.Protein>  (570) 


>  <Gold.PLP.Chemscore.CHOScore>  (570) 
0.0000

>  <Gold.PLP.Chemscore.Hbond>  (570) 
2.6268

>  <Gold.PLP.Chemscore.Internal.Correction>  (570) 
0.0034

>  <Gold.PLP.Chemscore.Metal>  (570) 
0.0000

>  <Gold.PLP.Fitness>  (570) 
67.5693

>  <Gold.PLP.PLP>  (570) 
-61.6379

>  <Gold.PLP.ligand.clash>  (570) 
0.0000

>  <Gold.PLP.ligand.torsion>  (570) 
0.9761

>  <Gold.PLP.part.buried>  (570) 
-8.5632

>  <Gold.PLP.part.hbond>  (570) 
-5.3002

>  <Gold.PLP.part.metal>  (570) 
0.0000

>  <Gold.PLP.part.nonpolar>  (570) 
-47.8933

>  <Gold.PLP.part.repulsive>  (570) 
0.4811

>  <Gold.Protein.RotatedAtoms>  (570) 


>  <Gold.Protein.RotatedTorsions>  (570) 


>  <Gold.Protein.RotatedWaterAtoms>  (570) 


>  <Gold.Version>  (570) 
5.3.0

>  <PLP.Chemscore.CHOScore>  (570) 


>  <PLP.Chemscore.Hbond>  (570) 


>  <PLP.Chemscore.Internal.Correction>  (570) 


>  <PLP.Chemscore.Metal>  (570) 


>  <PLP.Fitness>  (570) 


>  <PLP.PLP>  (570) 


>  <PLP.ligand.clash>  (570) 


>  <PLP.ligand.torsion>  (570) 


>  <PLP.part.buried>  (570) 


>  <PLP.part.hbond>  (570) 


>  <PLP.part.metal>  (570) 


>  <PLP.part.nonpolar>  (570) 


>  <PLP.part.repulsive>  (570) 


>  <Version>  (570) 


$$$$
3570|Compound_2172|Compounds_3D_F|sdf|639|dock3|1
     RDKit          3D

 23 25  0  0  0  0  0  0  0  0999 V2000
  -14.8046  -21.6150   13.9712 O   0  0  0  0  0  0  0  0  0  0  0  0
  -13.7774  -21.6747   13.1014 C   0  0  0  0  0  0  0  0  0  0  0  0
  -13.3424  -22.7530   12.7480 O   0  0  0  0  0  0  0  0  0  0  0  0
  -13.1799  -20.4303   12.5786 C   0  0  0  0  0  0  0  0  0  0  0  0
  -11.8932  -20.1980   12.4123 N   0  0  0  0  0  0  0  0  0  0  0  0
  -11.7161  -18.9747   11.9229 C   0  0  0  0  0  0  0  0  0  0  0  0
  -12.8893  -18.3989   11.7670 N   0  0  0  0  0  0  0  0  0  0  0  0
  -13.8576  -19.3276   12.1818 N   0  0  0  0  0  0  0  0  0  0  0  0
  -10.4805  -18.3925   11.6223 N   0  0  0  0  0  0  0  0  0  0  0  0
  -10.1899  -17.1570   12.0751 C   0  0  0  0  0  0  0  0  0  0  0  0
  -11.0022  -16.5484   12.7447 O   0  0  0  0  0  0  0  0  0  0  0  0
   -8.8849  -16.5414   11.7577 C   0  0  0  0  0  0  0  0  0  0  0  0
   -8.7080  -15.1663   11.8962 C   0  0  0  0  0  0  0  0  0  0  0  0
   -7.4759  -14.5947   11.5964 C   0  0  0  0  0  0  0  0  0  0  0  0
   -6.4247  -15.3994   11.1593 C   0  0  0  0  0  0  0  0  0  0  0  0
   -6.6037  -16.7629   11.0231 C   0  0  0  0  0  0  0  0  0  0  0  0
   -7.8225  -17.3375   11.3237 C   0  0  0  0  0  0  0  0  0  0  0  0
   -7.2808  -13.1305   11.7409 C   0  0  0  0  0  0  0  0  0  0  0  0
   -8.3299  -12.2550   11.4653 C   0  0  0  0  0  0  0  0  0  0  0  0
   -8.1428  -10.8946   11.6015 C   0  0  0  0  0  0  0  0  0  0  0  0
   -6.9185  -10.3994   12.0111 C   0  0  0  0  0  0  0  0  0  0  0  0
   -5.8747  -11.2639   12.2866 C   0  0  0  0  0  0  0  0  0  0  0  0
   -6.0510  -12.6264   12.1590 C   0  0  0  0  0  0  0  0  0  0  0  0
  1  2  1  0
  2  3  2  0
  2  4  1  0
  4  5  2  0
  4  8  1  0
  5  6  1  0
  6  7  2  0
  6  9  1  0
  7  8  1  0
  9 10  1  0
 10 11  2  0
 10 12  1  0
 12 13  2  0
 12 17  1  0
 13 14  1  0
 14 15  2  0
 14 18  1  0
 15 16  1  0
 16 17  2  0
 18 19  2  0
 18 23  1  0
 19 20  1  0
 20 21  2  0
 21 22  1  0
 22 23  2  0
M  END
>  <Gold.Gold.Protein.RotatedWaterAtoms>  (571) 


>  <Gold.Id.Protein>  (571) 


>  <Gold.PLP.Chemscore.CHOScore>  (571) 
0.0000

>  <Gold.PLP.Chemscore.Hbond>  (571) 
5.2423

>  <Gold.PLP.Chemscore.Internal.Correction>  (571) 
0.0034

>  <Gold.PLP.Chemscore.Metal>  (571) 
0.0000

>  <Gold.PLP.Fitness>  (571) 
71.8273

>  <Gold.PLP.PLP>  (571) 
-59.5378

>  <Gold.PLP.ligand.clash>  (571) 
0.0000

>  <Gold.PLP.ligand.torsion>  (571) 
1.7204

>  <Gold.PLP.part.buried>  (571) 
-7.4129

>  <Gold.PLP.part.hbond>  (571) 
-7.1412

>  <Gold.PLP.part.metal>  (571) 
0.0000

>  <Gold.PLP.part.nonpolar>  (571) 
-47.0964

>  <Gold.PLP.part.repulsive>  (571) 
0.3453

>  <Gold.Protein.RotatedAtoms>  (571) 


>  <Gold.Protein.RotatedTorsions>  (571) 


>  <Gold.Protein.RotatedWaterAtoms>  (571) 


>  <Gold.Version>  (571) 
5.3.0

>  <PLP.Chemscore.CHOScore>  (571) 


>  <PLP.Chemscore.Hbond>  (571) 


>  <PLP.Chemscore.Internal.Correction>  (571) 


>  <PLP.Chemscore.Metal>  (571) 


>  <PLP.Fitness>  (571) 


>  <PLP.PLP>  (571) 


>  <PLP.ligand.clash>  (571) 


>  <PLP.ligand.torsion>  (571) 


>  <PLP.part.buried>  (571) 


>  <PLP.part.hbond>  (571) 


>  <PLP.part.metal>  (571) 


>  <PLP.part.nonpolar>  (571) 


>  <PLP.part.repulsive>  (571) 


>  <Version>  (571) 


$$$$
3571|Compound_2172|Compounds_3D_F|sdf|639|dock4|1
     RDKit          3D

 23 25  0  0  0  0  0  0  0  0999 V2000
  -13.9003  -19.1989    8.2998 O   0  0  0  0  0  0  0  0  0  0  0  0
  -14.0637  -19.4918    9.6047 C   0  0  0  0  0  0  0  0  0  0  0  0
  -14.9962  -20.1856    9.9595 O   0  0  0  0  0  0  0  0  0  0  0  0
  -13.1105  -18.9690   10.6032 C   0  0  0  0  0  0  0  0  0  0  0  0
  -12.0933  -18.1672   10.3588 N   0  0  0  0  0  0  0  0  0  0  0  0
  -11.4491  -17.8996   11.4905 C   0  0  0  0  0  0  0  0  0  0  0  0
  -12.0428  -18.5275   12.4832 N   0  0  0  0  0  0  0  0  0  0  0  0
  -13.1294  -19.2258   11.9323 N   0  0  0  0  0  0  0  0  0  0  0  0
  -10.3203  -17.0820   11.6073 N   0  0  0  0  0  0  0  0  0  0  0  0
   -9.0886  -17.6284   11.5963 C   0  0  0  0  0  0  0  0  0  0  0  0
   -8.9587  -18.8323   11.4852 O   0  0  0  0  0  0  0  0  0  0  0  0
   -7.8959  -16.7652   11.7198 C   0  0  0  0  0  0  0  0  0  0  0  0
   -8.0347  -15.3789   11.7376 C   0  0  0  0  0  0  0  0  0  0  0  0
   -6.9070  -14.5733   11.8553 C   0  0  0  0  0  0  0  0  0  0  0  0
   -5.6443  -15.1559   11.9548 C   0  0  0  0  0  0  0  0  0  0  0  0
   -5.5104  -16.5311   11.9369 C   0  0  0  0  0  0  0  0  0  0  0  0
   -6.6260  -17.3368   11.8254 C   0  0  0  0  0  0  0  0  0  0  0  0
   -7.0475  -13.0959   11.8741 C   0  0  0  0  0  0  0  0  0  0  0  0
   -8.2724  -12.5062   11.5659 C   0  0  0  0  0  0  0  0  0  0  0  0
   -8.3972  -11.1320   11.5851 C   0  0  0  0  0  0  0  0  0  0  0  0
   -7.3111  -10.3404   11.9099 C   0  0  0  0  0  0  0  0  0  0  0  0
   -6.0938  -10.9205   12.2173 C   0  0  0  0  0  0  0  0  0  0  0  0
   -5.9579  -12.2936   12.2065 C   0  0  0  0  0  0  0  0  0  0  0  0
  1  2  1  0
  2  3  2  0
  2  4  1  0
  4  5  2  0
  4  8  1  0
  5  6  1  0
  6  7  2  0
  6  9  1  0
  7  8  1  0
  9 10  1  0
 10 11  2  0
 10 12  1  0
 12 13  2  0
 12 17  1  0
 13 14  1  0
 14 15  2  0
 14 18  1  0
 15 16  1  0
 16 17  2  0
 18 19  2  0
 18 23  1  0
 19 20  1  0
 20 21  2  0
 21 22  1  0
 22 23  2  0
M  END
>  <Gold.Gold.Protein.RotatedWaterAtoms>  (572) 


>  <Gold.Id.Protein>  (572) 


>  <Gold.PLP.Chemscore.CHOScore>  (572) 
0.0000

>  <Gold.PLP.Chemscore.Hbond>  (572) 
2.2483

>  <Gold.PLP.Chemscore.Internal.Correction>  (572) 
0.0034

>  <Gold.PLP.Chemscore.Metal>  (572) 
0.0000

>  <Gold.PLP.Fitness>  (572) 
68.1840

>  <Gold.PLP.PLP>  (572) 
-63.0523

>  <Gold.PLP.ligand.clash>  (572) 
0.0000

>  <Gold.PLP.ligand.torsion>  (572) 
0.8083

>  <Gold.PLP.part.buried>  (572) 
-8.0119

>  <Gold.PLP.part.hbond>  (572) 
-4.8902

>  <Gold.PLP.part.metal>  (572) 
0.0000

>  <Gold.PLP.part.nonpolar>  (572) 
-50.3932

>  <Gold.PLP.part.repulsive>  (572) 
0.3860

>  <Gold.Protein.RotatedAtoms>  (572) 


>  <Gold.Protein.RotatedTorsions>  (572) 


>  <Gold.Protein.RotatedWaterAtoms>  (572) 


>  <Gold.Version>  (572) 
5.3.0

>  <PLP.Chemscore.CHOScore>  (572) 


>  <PLP.Chemscore.Hbond>  (572) 


>  <PLP.Chemscore.Internal.Correction>  (572) 


>  <PLP.Chemscore.Metal>  (572) 


>  <PLP.Fitness>  (572) 


>  <PLP.PLP>  (572) 


>  <PLP.ligand.clash>  (572) 


>  <PLP.ligand.torsion>  (572) 


>  <PLP.part.buried>  (572) 


>  <PLP.part.hbond>  (572) 


>  <PLP.part.metal>  (572) 


>  <PLP.part.nonpolar>  (572) 


>  <PLP.part.repulsive>  (572) 


>  <Version>  (572) 


$$$$
3572|Compound_2172|Compounds_3D_F|sdf|639|dock5|1
     RDKit          3D

 23 25  0  0  0  0  0  0  0  0999 V2000
  -15.0559  -21.8014   13.8747 O   0  0  0  0  0  0  0  0  0  0  0  0
  -14.0307  -21.8923   13.0051 C   0  0  0  0  0  0  0  0  0  0  0  0
  -13.6960  -22.9772   12.5718 O   0  0  0  0  0  0  0  0  0  0  0  0
  -13.3139  -20.6741   12.5797 C   0  0  0  0  0  0  0  0  0  0  0  0
  -12.0130  -20.5631   12.3987 N   0  0  0  0  0  0  0  0  0  0  0  0
  -11.7157  -19.3250   12.0164 C   0  0  0  0  0  0  0  0  0  0  0  0
  -12.8236  -18.6179   11.9462 N   0  0  0  0  0  0  0  0  0  0  0  0
  -13.8774  -19.4747   12.3029 N   0  0  0  0  0  0  0  0  0  0  0  0
  -10.4309  -18.8498   11.7347 N   0  0  0  0  0  0  0  0  0  0  0  0
  -10.1106  -17.5700   12.0096 C   0  0  0  0  0  0  0  0  0  0  0  0
  -10.9388  -16.8286   12.5023 O   0  0  0  0  0  0  0  0  0  0  0  0
   -8.7535  -17.0674   11.7119 C   0  0  0  0  0  0  0  0  0  0  0  0
   -8.4407  -15.7271   11.9292 C   0  0  0  0  0  0  0  0  0  0  0  0
   -7.1605  -15.2621   11.6476 C   0  0  0  0  0  0  0  0  0  0  0  0
   -6.1971  -16.1382   11.1496 C   0  0  0  0  0  0  0  0  0  0  0  0
   -6.5108  -17.4669   10.9352 C   0  0  0  0  0  0  0  0  0  0  0  0
   -7.7781  -17.9362   11.2174 C   0  0  0  0  0  0  0  0  0  0  0  0
   -6.8208  -13.8355   11.8759 C   0  0  0  0  0  0  0  0  0  0  0  0
   -7.7857  -12.8479   11.6847 C   0  0  0  0  0  0  0  0  0  0  0  0
   -7.4642  -11.5231   11.8987 C   0  0  0  0  0  0  0  0  0  0  0  0
   -6.1887  -11.1744   12.3027 C   0  0  0  0  0  0  0  0  0  0  0  0
   -5.2279  -12.1506   12.4947 C   0  0  0  0  0  0  0  0  0  0  0  0
   -5.5387  -13.4790   12.2888 C   0  0  0  0  0  0  0  0  0  0  0  0
  1  2  1  0
  2  3  2  0
  2  4  1  0
  4  5  2  0
  4  8  1  0
  5  6  1  0
  6  7  2  0
  6  9  1  0
  7  8  1  0
  9 10  1  0
 10 11  2  0
 10 12  1  0
 12 13  2  0
 12 17  1  0
 13 14  1  0
 14 15  2  0
 14 18  1  0
 15 16  1  0
 16 17  2  0
 18 19  2  0
 18 23  1  0
 19 20  1  0
 20 21  2  0
 21 22  1  0
 22 23  2  0
M  END
>  <Gold.Gold.Protein.RotatedWaterAtoms>  (573) 


>  <Gold.Id.Protein>  (573) 


>  <Gold.PLP.Chemscore.CHOScore>  (573) 
0.0000

>  <Gold.PLP.Chemscore.Hbond>  (573) 
4.7261

>  <Gold.PLP.Chemscore.Internal.Correction>  (573) 
0.0034

>  <Gold.PLP.Chemscore.Metal>  (573) 
0.0000

>  <Gold.PLP.Fitness>  (573) 
69.1793

>  <Gold.PLP.PLP>  (573) 
-57.6143

>  <Gold.PLP.ligand.clash>  (573) 
0.0000

>  <Gold.PLP.ligand.torsion>  (573) 
1.3084

>  <Gold.PLP.part.buried>  (573) 
-7.8138

>  <Gold.PLP.part.hbond>  (573) 
-6.6344

>  <Gold.PLP.part.metal>  (573) 
0.0000

>  <Gold.PLP.part.nonpolar>  (573) 
-43.7066

>  <Gold.PLP.part.repulsive>  (573) 
0.3221

>  <Gold.Protein.RotatedAtoms>  (573) 


>  <Gold.Protein.RotatedTorsions>  (573) 


>  <Gold.Protein.RotatedWaterAtoms>  (573) 


>  <Gold.Version>  (573) 
5.3.0

>  <PLP.Chemscore.CHOScore>  (573) 


>  <PLP.Chemscore.Hbond>  (573) 


>  <PLP.Chemscore.Internal.Correction>  (573) 


>  <PLP.Chemscore.Metal>  (573) 


>  <PLP.Fitness>  (573) 


>  <PLP.PLP>  (573) 


>  <PLP.ligand.clash>  (573) 


>  <PLP.ligand.torsion>  (573) 


>  <PLP.part.buried>  (573) 


>  <PLP.part.hbond>  (573) 


>  <PLP.part.metal>  (573) 


>  <PLP.part.nonpolar>  (573) 


>  <PLP.part.repulsive>  (573) 


>  <Version>  (573) 


$$$$
3573|Compound_2173|Compounds_3D_F|sdf|640|dock1|1
     RDKit          3D

 39 43  0  0  0  0  0  0  0  0999 V2000
   -8.2577  -20.8991    7.3492 O   0  0  0  0  0  0  0  0  0  0  0  0
   -8.4588  -20.4106    8.5968 C   0  0  0  0  0  0  0  0  0  0  0  0
   -9.0822  -21.1936    9.5800 C   0  0  0  0  0  0  0  0  0  0  0  0
   -9.5924  -22.4502    9.6154 N   0  0  0  0  0  0  0  0  0  0  0  0
  -10.0661  -22.6921   10.8025 C   0  0  0  0  0  0  0  0  0  0  0  0
   -9.8877  -21.6045   11.6065 N   0  0  0  0  0  0  0  0  0  0  0  0
   -9.2656  -20.6368   10.8582 C   0  0  0  0  0  0  0  0  0  0  0  0
   -8.8472  -19.3980   11.0903 N   0  0  0  0  0  0  0  0  0  0  0  0
   -8.2641  -18.6957   10.1333 C   0  0  0  0  0  0  0  0  0  0  0  0
   -8.0670  -19.1845    8.9152 N   0  0  0  0  0  0  0  0  0  0  0  0
   -7.8394  -17.4030   10.4130 N   0  0  0  0  0  0  0  0  0  0  0  0
   -8.6881  -16.5216   10.9771 C   0  0  0  0  0  0  0  0  0  0  0  0
   -9.8255  -16.8573   11.2415 O   0  0  0  0  0  0  0  0  0  0  0  0
   -8.2343  -15.1444   11.2738 C   0  0  0  0  0  0  0  0  0  0  0  0
   -6.8864  -14.8978   11.5449 C   0  0  0  0  0  0  0  0  0  0  0  0
   -6.4621  -13.6163   11.8199 C   0  0  0  0  0  0  0  0  0  0  0  0
   -7.3819  -12.5628   11.8280 C   0  0  0  0  0  0  0  0  0  0  0  0
   -8.7308  -12.8114   11.5568 C   0  0  0  0  0  0  0  0  0  0  0  0
   -9.1515  -14.0918   11.2766 C   0  0  0  0  0  0  0  0  0  0  0  0
   -6.9292  -11.1913   12.1230 C   0  0  0  0  0  0  0  0  0  0  0  0
   -5.8107  -11.0010   12.5515 O   0  0  0  0  0  0  0  0  0  0  0  0
   -7.8556  -10.0263   11.8911 C   0  0  0  0  0  0  0  0  0  0  0  0
  -10.2881  -21.4896   13.0109 C   0  0  0  0  0  0  0  0  0  0  0  0
   -9.5650  -22.4524   13.8070 O   0  0  0  0  0  0  0  0  0  0  0  0
  -10.5035  -23.2437   14.5152 C   0  0  0  0  0  0  0  0  0  0  0  0
  -10.1001  -24.6624   14.8575 C   0  0  0  0  0  0  0  0  0  0  0  0
  -11.1502  -25.2053   15.6935 O   0  0  0  0  0  0  0  0  0  0  0  0
  -12.7036  -25.0785   15.2388 P   0  0  0  0  0  0  0  0  0  0  0  0
  -13.5818  -25.0943   16.4298 O   0  0  0  0  0  0  0  0  0  0  0  0
  -13.0887  -26.2929   14.2551 O   0  0  0  0  0  0  0  0  0  0  0  0
  -12.8518  -23.6547   14.4554 O   0  0  0  0  0  0  0  0  0  0  0  0
  -11.7568  -23.2845   13.6012 C   0  0  0  0  0  0  0  0  0  0  0  0
  -11.8012  -21.8067   13.1554 C   0  0  0  0  0  0  0  0  0  0  0  0
  -12.4989  -21.6635   11.8913 O   0  0  0  0  0  0  0  0  0  0  0  0
  -13.8369  -21.5703   11.9410 C   0  0  0  0  0  0  0  0  0  0  0  0
  -14.4481  -22.1169   12.8281 O   0  0  0  0  0  0  0  0  0  0  0  0
  -14.5775  -20.7834   10.8896 C   0  0  0  0  0  0  0  0  0  0  0  0
  -13.6369  -19.7470   10.2711 C   0  0  0  0  0  0  0  0  0  0  0  0
  -14.1880  -19.3039    8.9148 C   0  0  0  0  0  0  0  0  0  0  0  0
  1  2  1  0
  2  3  2  0
  2 10  1  0
  3  4  1  0
  3  7  1  0
  4  5  2  0
  5  6  1  0
  6  7  1  0
  6 23  1  0
  7  8  2  0
  8  9  1  0
  9 10  2  0
  9 11  1  0
 11 12  1  0
 12 13  2  0
 12 14  1  0
 14 15  2  0
 14 19  1  0
 15 16  1  0
 16 17  2  0
 17 18  1  0
 17 20  1  0
 18 19  2  0
 20 21  2  0
 20 22  1  0
 23 24  1  0
 23 33  1  0
 24 25  1  0
 25 26  1  0
 25 32  1  0
 26 27  1  0
 27 28  1  0
 28 29  2  0
 28 30  1  0
 28 31  1  0
 31 32  1  0
 32 33  1  0
 33 34  1  0
 34 35  1  0
 35 36  2  0
 35 37  1  0
 37 38  1  0
 38 39  1  0
M  END
>  <Gold.Gold.Protein.RotatedWaterAtoms>  (574) 


>  <Gold.Id.Protein>  (574) 


>  <Gold.PLP.Chemscore.CHOScore>  (574) 
0.0000

>  <Gold.PLP.Chemscore.Hbond>  (574) 
1.8647

>  <Gold.PLP.Chemscore.Internal.Correction>  (574) 
0.6830

>  <Gold.PLP.Chemscore.Metal>  (574) 
0.0000

>  <Gold.PLP.Fitness>  (574) 
64.8002

>  <Gold.PLP.PLP>  (574) 
-62.3107

>  <Gold.PLP.ligand.clash>  (574) 
0.0000

>  <Gold.PLP.ligand.torsion>  (574) 
1.8938

>  <Gold.PLP.part.buried>  (574) 
-4.3746

>  <Gold.PLP.part.hbond>  (574) 
-5.0000

>  <Gold.PLP.part.metal>  (574) 
0.0000

>  <Gold.PLP.part.nonpolar>  (574) 
-54.7838

>  <Gold.PLP.part.repulsive>  (574) 
0.5648

>  <Gold.Protein.RotatedAtoms>  (574) 


>  <Gold.Protein.RotatedTorsions>  (574) 


>  <Gold.Protein.RotatedWaterAtoms>  (574) 


>  <Gold.Version>  (574) 
5.3.0

>  <PLP.Chemscore.CHOScore>  (574) 


>  <PLP.Chemscore.Hbond>  (574) 


>  <PLP.Chemscore.Internal.Correction>  (574) 


>  <PLP.Chemscore.Metal>  (574) 


>  <PLP.Fitness>  (574) 


>  <PLP.PLP>  (574) 


>  <PLP.ligand.clash>  (574) 


>  <PLP.ligand.torsion>  (574) 


>  <PLP.part.buried>  (574) 


>  <PLP.part.hbond>  (574) 


>  <PLP.part.metal>  (574) 


>  <PLP.part.nonpolar>  (574) 


>  <PLP.part.repulsive>  (574) 


>  <Version>  (574) 


$$$$
3574|Compound_2173|Compounds_3D_F|sdf|640|dock2|1
     RDKit          3D

 39 43  0  0  0  0  0  0  0  0999 V2000
   -8.3240  -20.9894    9.2185 O   0  0  0  0  0  0  0  0  0  0  0  0
   -8.9788  -20.3091   10.1902 C   0  0  0  0  0  0  0  0  0  0  0  0
   -9.7296  -20.9911   11.1595 C   0  0  0  0  0  0  0  0  0  0  0  0
  -10.0024  -22.2964   11.4090 N   0  0  0  0  0  0  0  0  0  0  0  0
  -10.7684  -22.3864   12.4564 C   0  0  0  0  0  0  0  0  0  0  0  0
  -11.0347  -21.1420   12.9479 N   0  0  0  0  0  0  0  0  0  0  0  0
  -10.3888  -20.2352   12.1453 C   0  0  0  0  0  0  0  0  0  0  0  0
  -10.2809  -18.9118   12.1256 N   0  0  0  0  0  0  0  0  0  0  0  0
   -9.5620  -18.3104   11.1925 C   0  0  0  0  0  0  0  0  0  0  0  0
   -8.9200  -18.9857   10.2472 N   0  0  0  0  0  0  0  0  0  0  0  0
   -9.4720  -16.9242   11.2038 N   0  0  0  0  0  0  0  0  0  0  0  0
   -8.3236  -16.3261   11.5759 C   0  0  0  0  0  0  0  0  0  0  0  0
   -7.3658  -16.9991   11.9016 O   0  0  0  0  0  0  0  0  0  0  0  0
   -8.2295  -14.8490   11.5882 C   0  0  0  0  0  0  0  0  0  0  0  0
   -9.3520  -14.0765   11.2808 C   0  0  0  0  0  0  0  0  0  0  0  0
   -9.2666  -12.7016   11.2932 C   0  0  0  0  0  0  0  0  0  0  0  0
   -8.0553  -12.0800   11.6131 C   0  0  0  0  0  0  0  0  0  0  0  0
   -6.9326  -12.8547   11.9201 C   0  0  0  0  0  0  0  0  0  0  0  0
   -7.0218  -14.2284   11.9128 C   0  0  0  0  0  0  0  0  0  0  0  0
   -7.9624  -10.6089   11.6257 C   0  0  0  0  0  0  0  0  0  0  0  0
   -8.8911   -9.9393   11.2256 O   0  0  0  0  0  0  0  0  0  0  0  0
   -6.7144   -9.9375   12.1367 C   0  0  0  0  0  0  0  0  0  0  0  0
  -11.8600  -20.8300   14.1173 C   0  0  0  0  0  0  0  0  0  0  0  0
  -11.2015  -21.2868   15.3178 O   0  0  0  0  0  0  0  0  0  0  0  0
  -12.0871  -22.1452   16.0158 C   0  0  0  0  0  0  0  0  0  0  0  0
  -11.4724  -23.2316   16.8730 C   0  0  0  0  0  0  0  0  0  0  0  0
  -12.5606  -23.8680   17.5850 O   0  0  0  0  0  0  0  0  0  0  0  0
  -13.8823  -24.3633   16.7827 P   0  0  0  0  0  0  0  0  0  0  0  0
  -15.0500  -24.3766   17.6917 O   0  0  0  0  0  0  0  0  0  0  0  0
  -13.6384  -25.8351   16.1785 O   0  0  0  0  0  0  0  0  0  0  0  0
  -14.1288  -23.2954   15.5736 O   0  0  0  0  0  0  0  0  0  0  0  0
  -12.9513  -22.8069   14.9099 C   0  0  0  0  0  0  0  0  0  0  0  0
  -13.2185  -21.5751   14.0177 C   0  0  0  0  0  0  0  0  0  0  0  0
  -13.5098  -21.9723   12.6529 O   0  0  0  0  0  0  0  0  0  0  0  0
  -13.7919  -20.9924   11.7801 C   0  0  0  0  0  0  0  0  0  0  0  0
  -13.3757  -19.8746   11.9715 O   0  0  0  0  0  0  0  0  0  0  0  0
  -14.6283  -21.2865   10.5609 C   0  0  0  0  0  0  0  0  0  0  0  0
  -13.7531  -21.2003    9.3086 C   0  0  0  0  0  0  0  0  0  0  0  0
  -14.6185  -21.4163    8.0661 C   0  0  0  0  0  0  0  0  0  0  0  0
  1  2  1  0
  2  3  2  0
  2 10  1  0
  3  4  1  0
  3  7  1  0
  4  5  2  0
  5  6  1  0
  6  7  1  0
  6 23  1  0
  7  8  2  0
  8  9  1  0
  9 10  2  0
  9 11  1  0
 11 12  1  0
 12 13  2  0
 12 14  1  0
 14 15  2  0
 14 19  1  0
 15 16  1  0
 16 17  2  0
 17 18  1  0
 17 20  1  0
 18 19  2  0
 20 21  2  0
 20 22  1  0
 23 24  1  0
 23 33  1  0
 24 25  1  0
 25 26  1  0
 25 32  1  0
 26 27  1  0
 27 28  1  0
 28 29  2  0
 28 30  1  0
 28 31  1  0
 31 32  1  0
 32 33  1  0
 33 34  1  0
 34 35  1  0
 35 36  2  0
 35 37  1  0
 37 38  1  0
 38 39  1  0
M  END
>  <Gold.Gold.Protein.RotatedWaterAtoms>  (575) 


>  <Gold.Id.Protein>  (575) 


>  <Gold.PLP.Chemscore.CHOScore>  (575) 
0.0000

>  <Gold.PLP.Chemscore.Hbond>  (575) 
1.5756

>  <Gold.PLP.Chemscore.Internal.Correction>  (575) 
0.6830

>  <Gold.PLP.Chemscore.Metal>  (575) 
0.0000

>  <Gold.PLP.Fitness>  (575) 
69.5818

>  <Gold.PLP.PLP>  (575) 
-66.8523

>  <Gold.PLP.ligand.clash>  (575) 
0.0000

>  <Gold.PLP.ligand.torsion>  (575) 
1.3402

>  <Gold.PLP.part.buried>  (575) 
-5.4928

>  <Gold.PLP.part.hbond>  (575) 
-3.4497

>  <Gold.PLP.part.metal>  (575) 
0.0000

>  <Gold.PLP.part.nonpolar>  (575) 
-60.8248

>  <Gold.PLP.part.repulsive>  (575) 
2.4143

>  <Gold.Protein.RotatedAtoms>  (575) 


>  <Gold.Protein.RotatedTorsions>  (575) 


>  <Gold.Protein.RotatedWaterAtoms>  (575) 


>  <Gold.Version>  (575) 
5.3.0

>  <PLP.Chemscore.CHOScore>  (575) 


>  <PLP.Chemscore.Hbond>  (575) 


>  <PLP.Chemscore.Internal.Correction>  (575) 


>  <PLP.Chemscore.Metal>  (575) 


>  <PLP.Fitness>  (575) 


>  <PLP.PLP>  (575) 


>  <PLP.ligand.clash>  (575) 


>  <PLP.ligand.torsion>  (575) 


>  <PLP.part.buried>  (575) 


>  <PLP.part.hbond>  (575) 


>  <PLP.part.metal>  (575) 


>  <PLP.part.nonpolar>  (575) 


>  <PLP.part.repulsive>  (575) 


>  <Version>  (575) 


$$$$
3575|Compound_2173|Compounds_3D_F|sdf|640|dock3|1
     RDKit          3D

 39 43  0  0  0  0  0  0  0  0999 V2000
   -8.7341  -20.7817    8.6203 O   0  0  0  0  0  0  0  0  0  0  0  0
   -9.1730  -20.1640    9.7434 C   0  0  0  0  0  0  0  0  0  0  0  0
   -9.8254  -20.8902   10.7510 C   0  0  0  0  0  0  0  0  0  0  0  0
  -10.1701  -22.1919   10.9164 N   0  0  0  0  0  0  0  0  0  0  0  0
  -10.7742  -22.3383   12.0591 C   0  0  0  0  0  0  0  0  0  0  0  0
  -10.8539  -21.1376   12.7018 N   0  0  0  0  0  0  0  0  0  0  0  0
  -10.2600  -20.1988   11.8959 C   0  0  0  0  0  0  0  0  0  0  0  0
  -10.0415  -18.8919   11.9842 N   0  0  0  0  0  0  0  0  0  0  0  0
   -9.4221  -18.2472   11.0097 C   0  0  0  0  0  0  0  0  0  0  0  0
   -8.9913  -18.8618    9.9150 N   0  0  0  0  0  0  0  0  0  0  0  0
   -9.2111  -16.8801   11.1373 N   0  0  0  0  0  0  0  0  0  0  0  0
   -7.9999  -16.4159   11.5014 C   0  0  0  0  0  0  0  0  0  0  0  0
   -7.0913  -17.1930   11.7182 O   0  0  0  0  0  0  0  0  0  0  0  0
   -7.7768  -14.9590   11.6377 C   0  0  0  0  0  0  0  0  0  0  0  0
   -6.5065  -14.4754   11.9599 C   0  0  0  0  0  0  0  0  0  0  0  0
   -6.2969  -13.1196   12.0857 C   0  0  0  0  0  0  0  0  0  0  0  0
   -7.3567  -12.2281   11.8911 C   0  0  0  0  0  0  0  0  0  0  0  0
   -8.6276  -12.7138   11.5690 C   0  0  0  0  0  0  0  0  0  0  0  0
   -8.8335  -14.0686   11.4382 C   0  0  0  0  0  0  0  0  0  0  0  0
   -7.1338  -10.7773   12.0264 C   0  0  0  0  0  0  0  0  0  0  0  0
   -6.0886  -10.3644   12.4822 O   0  0  0  0  0  0  0  0  0  0  0  0
   -8.2039   -9.8077   11.5972 C   0  0  0  0  0  0  0  0  0  0  0  0
  -11.4629  -20.8942   14.0116 C   0  0  0  0  0  0  0  0  0  0  0  0
  -10.7174  -21.5871   15.0352 O   0  0  0  0  0  0  0  0  0  0  0  0
  -11.6100  -22.4223   15.7520 C   0  0  0  0  0  0  0  0  0  0  0  0
  -11.0403  -23.6817   16.3703 C   0  0  0  0  0  0  0  0  0  0  0  0
  -12.0994  -24.2766   17.1581 O   0  0  0  0  0  0  0  0  0  0  0  0
  -13.5727  -24.4962   16.5123 P   0  0  0  0  0  0  0  0  0  0  0  0
  -14.5976  -24.4960   17.5798 O   0  0  0  0  0  0  0  0  0  0  0  0
  -13.6172  -25.8890   15.7069 O   0  0  0  0  0  0  0  0  0  0  0  0
  -13.8312  -23.2501   15.4907 O   0  0  0  0  0  0  0  0  0  0  0  0
  -12.6983  -22.8179   14.7191 C   0  0  0  0  0  0  0  0  0  0  0  0
  -12.9118  -21.4519   14.0312 C   0  0  0  0  0  0  0  0  0  0  0  0
  -13.4365  -21.6198   12.6888 O   0  0  0  0  0  0  0  0  0  0  0  0
  -13.6131  -20.5065   11.9601 C   0  0  0  0  0  0  0  0  0  0  0  0
  -13.1258  -19.4627   12.3237 O   0  0  0  0  0  0  0  0  0  0  0  0
  -14.4199  -20.5586   10.6876 C   0  0  0  0  0  0  0  0  0  0  0  0
  -13.9184  -21.7090    9.8121 C   0  0  0  0  0  0  0  0  0  0  0  0
  -14.6416  -21.6766    8.4646 C   0  0  0  0  0  0  0  0  0  0  0  0
  1  2  1  0
  2  3  2  0
  2 10  1  0
  3  4  1  0
  3  7  1  0
  4  5  2  0
  5  6  1  0
  6  7  1  0
  6 23  1  0
  7  8  2  0
  8  9  1  0
  9 10  2  0
  9 11  1  0
 11 12  1  0
 12 13  2  0
 12 14  1  0
 14 15  2  0
 14 19  1  0
 15 16  1  0
 16 17  2  0
 17 18  1  0
 17 20  1  0
 18 19  2  0
 20 21  2  0
 20 22  1  0
 23 24  1  0
 23 33  1  0
 24 25  1  0
 25 26  1  0
 25 32  1  0
 26 27  1  0
 27 28  1  0
 28 29  2  0
 28 30  1  0
 28 31  1  0
 31 32  1  0
 32 33  1  0
 33 34  1  0
 34 35  1  0
 35 36  2  0
 35 37  1  0
 37 38  1  0
 38 39  1  0
M  END
>  <Gold.Gold.Protein.RotatedWaterAtoms>  (576) 


>  <Gold.Id.Protein>  (576) 


>  <Gold.PLP.Chemscore.CHOScore>  (576) 
0.0000

>  <Gold.PLP.Chemscore.Hbond>  (576) 
0.5005

>  <Gold.PLP.Chemscore.Internal.Correction>  (576) 
0.6830

>  <Gold.PLP.Chemscore.Metal>  (576) 
0.0000

>  <Gold.PLP.Fitness>  (576) 
69.0434

>  <Gold.PLP.PLP>  (576) 
-69.0590

>  <Gold.PLP.ligand.clash>  (576) 
0.0000

>  <Gold.PLP.ligand.torsion>  (576) 
1.1001

>  <Gold.PLP.part.buried>  (576) 
-4.6474

>  <Gold.PLP.part.hbond>  (576) 
-2.4866

>  <Gold.PLP.part.metal>  (576) 
0.0000

>  <Gold.PLP.part.nonpolar>  (576) 
-63.5313

>  <Gold.PLP.part.repulsive>  (576) 
1.3516

>  <Gold.Protein.RotatedAtoms>  (576) 


>  <Gold.Protein.RotatedTorsions>  (576) 


>  <Gold.Protein.RotatedWaterAtoms>  (576) 


>  <Gold.Version>  (576) 
5.3.0

>  <PLP.Chemscore.CHOScore>  (576) 


>  <PLP.Chemscore.Hbond>  (576) 


>  <PLP.Chemscore.Internal.Correction>  (576) 


>  <PLP.Chemscore.Metal>  (576) 


>  <PLP.Fitness>  (576) 


>  <PLP.PLP>  (576) 


>  <PLP.ligand.clash>  (576) 


>  <PLP.ligand.torsion>  (576) 


>  <PLP.part.buried>  (576) 


>  <PLP.part.hbond>  (576) 


>  <PLP.part.metal>  (576) 


>  <PLP.part.nonpolar>  (576) 


>  <PLP.part.repulsive>  (576) 


>  <Version>  (576) 


$$$$
3576|Compound_2173|Compounds_3D_F|sdf|640|dock4|1
     RDKit          3D

 39 43  0  0  0  0  0  0  0  0999 V2000
   -8.0172  -20.6192    8.2067 O   0  0  0  0  0  0  0  0  0  0  0  0
   -8.5314  -20.0784    9.3376 C   0  0  0  0  0  0  0  0  0  0  0  0
   -9.1856  -20.8834   10.2823 C   0  0  0  0  0  0  0  0  0  0  0  0
   -9.4698  -22.2069   10.3728 N   0  0  0  0  0  0  0  0  0  0  0  0
  -10.1107  -22.4375   11.4811 C   0  0  0  0  0  0  0  0  0  0  0  0
  -10.2770  -21.2745   12.1745 N   0  0  0  0  0  0  0  0  0  0  0  0
   -9.7001  -20.2700   11.4384 C   0  0  0  0  0  0  0  0  0  0  0  0
   -9.5521  -18.9597   11.5960 N   0  0  0  0  0  0  0  0  0  0  0  0
   -8.9280  -18.2393   10.6792 C   0  0  0  0  0  0  0  0  0  0  0  0
   -8.4233  -18.7787    9.5765 N   0  0  0  0  0  0  0  0  0  0  0  0
   -8.7922  -16.8712   10.8784 N   0  0  0  0  0  0  0  0  0  0  0  0
   -7.6099  -16.3618   11.2759 C   0  0  0  0  0  0  0  0  0  0  0  0
   -6.6618  -17.0990   11.4601 O   0  0  0  0  0  0  0  0  0  0  0  0
   -7.4670  -14.9040   11.4884 C   0  0  0  0  0  0  0  0  0  0  0  0
   -8.5258  -14.0473   11.1784 C   0  0  0  0  0  0  0  0  0  0  0  0
   -8.3949  -12.6903   11.3769 C   0  0  0  0  0  0  0  0  0  0  0  0
   -7.2013  -12.1713   11.8886 C   0  0  0  0  0  0  0  0  0  0  0  0
   -6.1424  -13.0302   12.1980 C   0  0  0  0  0  0  0  0  0  0  0  0
   -6.2774  -14.3864   12.0042 C   0  0  0  0  0  0  0  0  0  0  0  0
   -7.0598  -10.7195   12.1005 C   0  0  0  0  0  0  0  0  0  0  0  0
   -6.0087  -10.2645   12.4992 O   0  0  0  0  0  0  0  0  0  0  0  0
   -8.2206   -9.8010   11.8207 C   0  0  0  0  0  0  0  0  0  0  0  0
  -10.9494  -21.1244   13.4672 C   0  0  0  0  0  0  0  0  0  0  0  0
  -10.2237  -21.8479   14.4840 O   0  0  0  0  0  0  0  0  0  0  0  0
  -11.1156  -22.7508   15.1145 C   0  0  0  0  0  0  0  0  0  0  0  0
  -10.5280  -24.0228   15.6885 C   0  0  0  0  0  0  0  0  0  0  0  0
  -11.5977  -24.6954   16.3953 O   0  0  0  0  0  0  0  0  0  0  0  0
  -13.0335  -24.9278   15.6740 P   0  0  0  0  0  0  0  0  0  0  0  0
  -14.1021  -25.0209   16.6935 O   0  0  0  0  0  0  0  0  0  0  0  0
  -12.9941  -26.2745   14.7934 O   0  0  0  0  0  0  0  0  0  0  0  0
  -13.2927  -23.6363   14.7107 O   0  0  0  0  0  0  0  0  0  0  0  0
  -12.1443  -23.1245   14.0145 C   0  0  0  0  0  0  0  0  0  0  0  0
  -12.3770  -21.7303   13.3925 C   0  0  0  0  0  0  0  0  0  0  0  0
  -12.8379  -21.8409   12.0211 O   0  0  0  0  0  0  0  0  0  0  0  0
  -14.1345  -22.1346   11.8359 C   0  0  0  0  0  0  0  0  0  0  0  0
  -14.8377  -22.3894   12.7846 O   0  0  0  0  0  0  0  0  0  0  0  0
  -14.7134  -22.1466   10.4440 C   0  0  0  0  0  0  0  0  0  0  0  0
  -14.5530  -20.7620    9.8126 C   0  0  0  0  0  0  0  0  0  0  0  0
  -14.4889  -20.9003    8.2906 C   0  0  0  0  0  0  0  0  0  0  0  0
  1  2  1  0
  2  3  2  0
  2 10  1  0
  3  4  1  0
  3  7  1  0
  4  5  2  0
  5  6  1  0
  6  7  1  0
  6 23  1  0
  7  8  2  0
  8  9  1  0
  9 10  2  0
  9 11  1  0
 11 12  1  0
 12 13  2  0
 12 14  1  0
 14 15  2  0
 14 19  1  0
 15 16  1  0
 16 17  2  0
 17 18  1  0
 17 20  1  0
 18 19  2  0
 20 21  2  0
 20 22  1  0
 23 24  1  0
 23 33  1  0
 24 25  1  0
 25 26  1  0
 25 32  1  0
 26 27  1  0
 27 28  1  0
 28 29  2  0
 28 30  1  0
 28 31  1  0
 31 32  1  0
 32 33  1  0
 33 34  1  0
 34 35  1  0
 35 36  2  0
 35 37  1  0
 37 38  1  0
 38 39  1  0
M  END
>  <Gold.Gold.Protein.RotatedWaterAtoms>  (577) 


>  <Gold.Id.Protein>  (577) 


>  <Gold.PLP.Chemscore.CHOScore>  (577) 
0.0000

>  <Gold.PLP.Chemscore.Hbond>  (577) 
1.0304

>  <Gold.PLP.Chemscore.Internal.Correction>  (577) 
0.6830

>  <Gold.PLP.Chemscore.Metal>  (577) 
0.0000

>  <Gold.PLP.Fitness>  (577) 
63.6899

>  <Gold.PLP.PLP>  (577) 
-62.0705

>  <Gold.PLP.ligand.clash>  (577) 
0.0000

>  <Gold.PLP.ligand.torsion>  (577) 
1.0774

>  <Gold.PLP.part.buried>  (577) 
-3.9787

>  <Gold.PLP.part.hbond>  (577) 
-3.3523

>  <Gold.PLP.part.metal>  (577) 
0.0000

>  <Gold.PLP.part.nonpolar>  (577) 
-57.4291

>  <Gold.PLP.part.repulsive>  (577) 
1.8075

>  <Gold.Protein.RotatedAtoms>  (577) 


>  <Gold.Protein.RotatedTorsions>  (577) 


>  <Gold.Protein.RotatedWaterAtoms>  (577) 


>  <Gold.Version>  (577) 
5.3.0

>  <PLP.Chemscore.CHOScore>  (577) 


>  <PLP.Chemscore.Hbond>  (577) 


>  <PLP.Chemscore.Internal.Correction>  (577) 


>  <PLP.Chemscore.Metal>  (577) 


>  <PLP.Fitness>  (577) 


>  <PLP.PLP>  (577) 


>  <PLP.ligand.clash>  (577) 


>  <PLP.ligand.torsion>  (577) 


>  <PLP.part.buried>  (577) 


>  <PLP.part.hbond>  (577) 


>  <PLP.part.metal>  (577) 


>  <PLP.part.nonpolar>  (577) 


>  <PLP.part.repulsive>  (577) 


>  <Version>  (577) 


$$$$
3577|Compound_2173|Compounds_3D_F|sdf|640|dock5|1
     RDKit          3D

 39 43  0  0  0  0  0  0  0  0999 V2000
   -9.1189  -20.7267    8.2295 O   0  0  0  0  0  0  0  0  0  0  0  0
   -9.3619  -20.1629    9.4373 C   0  0  0  0  0  0  0  0  0  0  0  0
   -9.8200  -20.9411   10.5110 C   0  0  0  0  0  0  0  0  0  0  0  0
  -10.1157  -22.2546   10.6779 N   0  0  0  0  0  0  0  0  0  0  0  0
  -10.5092  -22.4580   11.9010 C   0  0  0  0  0  0  0  0  0  0  0  0
  -10.4890  -21.2859   12.5986 N   0  0  0  0  0  0  0  0  0  0  0  0
  -10.0557  -20.3045   11.7426 C   0  0  0  0  0  0  0  0  0  0  0  0
   -9.8400  -18.9984   11.8474 N   0  0  0  0  0  0  0  0  0  0  0  0
   -9.4076  -18.3036   10.8085 C   0  0  0  0  0  0  0  0  0  0  0  0
   -9.1678  -18.8655    9.6302 N   0  0  0  0  0  0  0  0  0  0  0  0
   -9.1931  -16.9390   10.9558 N   0  0  0  0  0  0  0  0  0  0  0  0
   -7.9975  -16.4865   11.3812 C   0  0  0  0  0  0  0  0  0  0  0  0
   -7.1061  -17.2719   11.6359 O   0  0  0  0  0  0  0  0  0  0  0  0
   -7.7707  -15.0323   11.5384 C   0  0  0  0  0  0  0  0  0  0  0  0
   -6.5280  -14.5634   11.9711 C   0  0  0  0  0  0  0  0  0  0  0  0
   -6.3148  -13.2102   12.1166 C   0  0  0  0  0  0  0  0  0  0  0  0
   -7.3434  -12.3065   11.8313 C   0  0  0  0  0  0  0  0  0  0  0  0
   -8.5867  -12.7776   11.3987 C   0  0  0  0  0  0  0  0  0  0  0  0
   -8.7957  -14.1299   11.2485 C   0  0  0  0  0  0  0  0  0  0  0  0
   -7.1167  -10.8584   11.9875 C   0  0  0  0  0  0  0  0  0  0  0  0
   -6.0598  -10.4537   12.4234 O   0  0  0  0  0  0  0  0  0  0  0  0
   -8.1975   -9.8814   11.6045 C   0  0  0  0  0  0  0  0  0  0  0  0
  -10.8626  -21.1066   14.0036 C   0  0  0  0  0  0  0  0  0  0  0  0
  -10.1178  -22.0264   14.8300 O   0  0  0  0  0  0  0  0  0  0  0  0
  -11.0369  -22.7885   15.5933 C   0  0  0  0  0  0  0  0  0  0  0  0
  -10.6175  -24.1870   15.9944 C   0  0  0  0  0  0  0  0  0  0  0  0
  -11.6474  -24.6956   16.8758 O   0  0  0  0  0  0  0  0  0  0  0  0
  -13.2102  -24.5995   16.4465 P   0  0  0  0  0  0  0  0  0  0  0  0
  -14.0648  -24.5636   17.6542 O   0  0  0  0  0  0  0  0  0  0  0  0
  -13.6063  -25.8614   15.5293 O   0  0  0  0  0  0  0  0  0  0  0  0
  -13.3832  -23.2153   15.5996 O   0  0  0  0  0  0  0  0  0  0  0  0
  -12.3076  -22.8799   14.7073 C   0  0  0  0  0  0  0  0  0  0  0  0
  -12.3704  -21.4252   14.1930 C   0  0  0  0  0  0  0  0  0  0  0  0
  -13.0936  -21.3461   12.9376 O   0  0  0  0  0  0  0  0  0  0  0  0
  -13.1379  -20.1479   12.3343 C   0  0  0  0  0  0  0  0  0  0  0  0
  -12.5289  -19.2142   12.7999 O   0  0  0  0  0  0  0  0  0  0  0  0
  -13.9478  -19.9669   11.0757 C   0  0  0  0  0  0  0  0  0  0  0  0
  -13.0456  -19.4344    9.9604 C   0  0  0  0  0  0  0  0  0  0  0  0
  -13.9020  -18.7417    8.8992 C   0  0  0  0  0  0  0  0  0  0  0  0
  1  2  1  0
  2  3  2  0
  2 10  1  0
  3  4  1  0
  3  7  1  0
  4  5  2  0
  5  6  1  0
  6  7  1  0
  6 23  1  0
  7  8  2  0
  8  9  1  0
  9 10  2  0
  9 11  1  0
 11 12  1  0
 12 13  2  0
 12 14  1  0
 14 15  2  0
 14 19  1  0
 15 16  1  0
 16 17  2  0
 17 18  1  0
 17 20  1  0
 18 19  2  0
 20 21  2  0
 20 22  1  0
 23 24  1  0
 23 33  1  0
 24 25  1  0
 25 26  1  0
 25 32  1  0
 26 27  1  0
 27 28  1  0
 28 29  2  0
 28 30  1  0
 28 31  1  0
 31 32  1  0
 32 33  1  0
 33 34  1  0
 34 35  1  0
 35 36  2  0
 35 37  1  0
 37 38  1  0
 38 39  1  0
M  END
>  <Gold.Gold.Protein.RotatedWaterAtoms>  (578) 


>  <Gold.Id.Protein>  (578) 


>  <Gold.PLP.Chemscore.CHOScore>  (578) 
0.0000

>  <Gold.PLP.Chemscore.Hbond>  (578) 
0.7043

>  <Gold.PLP.Chemscore.Internal.Correction>  (578) 
0.6830

>  <Gold.PLP.Chemscore.Metal>  (578) 
0.0000

>  <Gold.PLP.Fitness>  (578) 
71.0181

>  <Gold.PLP.PLP>  (578) 
-70.1539

>  <Gold.PLP.ligand.clash>  (578) 
0.0000

>  <Gold.PLP.ligand.torsion>  (578) 
0.9659

>  <Gold.PLP.part.buried>  (578) 
-5.6468

>  <Gold.PLP.part.hbond>  (578) 
-3.5745

>  <Gold.PLP.part.metal>  (578) 
0.0000

>  <Gold.PLP.part.nonpolar>  (578) 
-62.1585

>  <Gold.PLP.part.repulsive>  (578) 
0.7177

>  <Gold.Protein.RotatedAtoms>  (578) 


>  <Gold.Protein.RotatedTorsions>  (578) 


>  <Gold.Protein.RotatedWaterAtoms>  (578) 


>  <Gold.Version>  (578) 
5.3.0

>  <PLP.Chemscore.CHOScore>  (578) 


>  <PLP.Chemscore.Hbond>  (578) 


>  <PLP.Chemscore.Internal.Correction>  (578) 


>  <PLP.Chemscore.Metal>  (578) 


>  <PLP.Fitness>  (578) 


>  <PLP.PLP>  (578) 


>  <PLP.ligand.clash>  (578) 


>  <PLP.ligand.torsion>  (578) 


>  <PLP.part.buried>  (578) 


>  <PLP.part.hbond>  (578) 


>  <PLP.part.metal>  (578) 


>  <PLP.part.nonpolar>  (578) 


>  <PLP.part.repulsive>  (578) 


>  <Version>  (578) 


$$$$
3578|Compound_2176|Compounds_3D_F|sdf|641|dock1|1
     RDKit          3D

 39 43  0  0  0  0  0  0  0  0999 V2000
  -13.2180  -19.8918    8.9981 O   0  0  0  0  0  0  0  0  0  0  0  0
  -12.2049  -19.8001    9.8930 C   0  0  0  0  0  0  0  0  0  0  0  0
  -11.6921  -20.9493   10.5135 C   0  0  0  0  0  0  0  0  0  0  0  0
  -11.9734  -22.2747   10.4457 N   0  0  0  0  0  0  0  0  0  0  0  0
  -11.1818  -22.9269   11.2464 C   0  0  0  0  0  0  0  0  0  0  0  0
  -10.3408  -22.0596   11.8793 N   0  0  0  0  0  0  0  0  0  0  0  0
  -10.6402  -20.7964   11.4342 C   0  0  0  0  0  0  0  0  0  0  0  0
  -10.1711  -19.5795   11.6836 N   0  0  0  0  0  0  0  0  0  0  0  0
  -10.6854  -18.5234   11.0764 C   0  0  0  0  0  0  0  0  0  0  0  0
  -11.6748  -18.6235   10.1974 N   0  0  0  0  0  0  0  0  0  0  0  0
  -10.1685  -17.2661   11.3635 N   0  0  0  0  0  0  0  0  0  0  0  0
   -8.8349  -17.0797   11.4076 C   0  0  0  0  0  0  0  0  0  0  0  0
   -8.0836  -18.0114   11.1960 O   0  0  0  0  0  0  0  0  0  0  0  0
   -8.2854  -15.7412   11.7125 C   0  0  0  0  0  0  0  0  0  0  0  0
   -9.1443  -14.6566   11.8962 C   0  0  0  0  0  0  0  0  0  0  0  0
   -8.6247  -13.4101   12.1798 C   0  0  0  0  0  0  0  0  0  0  0  0
   -7.2561  -13.2346   12.2827 C   0  0  0  0  0  0  0  0  0  0  0  0
   -6.4002  -14.3058   12.1021 C   0  0  0  0  0  0  0  0  0  0  0  0
   -6.9061  -15.5587   11.8229 C   0  0  0  0  0  0  0  0  0  0  0  0
   -6.6962  -11.8703   12.5928 C   0  0  0  0  0  0  0  0  0  0  0  0
   -5.2177  -11.8250   12.1996 C   0  0  0  0  0  0  0  0  0  0  0  0
   -7.4670  -10.8113   11.8026 C   0  0  0  0  0  0  0  0  0  0  0  0
   -9.3062  -22.4116   12.8554 C   0  0  0  0  0  0  0  0  0  0  0  0
   -8.7092  -23.6775   12.5022 O   0  0  0  0  0  0  0  0  0  0  0  0
   -8.8186  -24.5503   13.6133 C   0  0  0  0  0  0  0  0  0  0  0  0
   -8.9027  -26.0347   13.3269 C   0  0  0  0  0  0  0  0  0  0  0  0
   -8.8596  -26.7104   14.6067 O   0  0  0  0  0  0  0  0  0  0  0  0
   -9.8400  -26.2384   15.8122 P   0  0  0  0  0  0  0  0  0  0  0  0
   -9.2327  -26.5759   17.1187 O   0  0  0  0  0  0  0  0  0  0  0  0
  -11.2728  -26.9588   15.6698 O   0  0  0  0  0  0  0  0  0  0  0  0
  -10.0105  -24.6220   15.6777 O   0  0  0  0  0  0  0  0  0  0  0  0
  -10.1160  -24.1040   14.3411 C   0  0  0  0  0  0  0  0  0  0  0  0
   -9.9420  -22.5722   14.2620 C   0  0  0  0  0  0  0  0  0  0  0  0
  -11.2251  -21.8971   14.3473 O   0  0  0  0  0  0  0  0  0  0  0  0
  -11.9523  -22.1078   15.4557 C   0  0  0  0  0  0  0  0  0  0  0  0
  -11.4641  -22.6869   16.3970 O   0  0  0  0  0  0  0  0  0  0  0  0
  -13.3764  -21.6207   15.5269 C   0  0  0  0  0  0  0  0  0  0  0  0
  -13.9464  -21.5007   14.1119 C   0  0  0  0  0  0  0  0  0  0  0  0
  -13.2740  -20.3325   13.3890 C   0  0  0  0  0  0  0  0  0  0  0  0
  1  2  1  0
  2  3  2  0
  2 10  1  0
  3  4  1  0
  3  7  1  0
  4  5  2  0
  5  6  1  0
  6  7  1  0
  6 23  1  0
  7  8  2  0
  8  9  1  0
  9 10  2  0
  9 11  1  0
 11 12  1  0
 12 13  2  0
 12 14  1  0
 14 15  2  0
 14 19  1  0
 15 16  1  0
 16 17  2  0
 17 18  1  0
 17 20  1  0
 18 19  2  0
 20 21  1  0
 20 22  1  0
 23 24  1  0
 23 33  1  0
 24 25  1  0
 25 26  1  0
 25 32  1  0
 26 27  1  0
 27 28  1  0
 28 29  2  0
 28 30  1  0
 28 31  1  0
 31 32  1  0
 32 33  1  0
 33 34  1  0
 34 35  1  0
 35 36  2  0
 35 37  1  0
 37 38  1  0
 38 39  1  0
M  END
>  <Gold.Gold.Protein.RotatedWaterAtoms>  (579) 


>  <Gold.Id.Protein>  (579) 


>  <Gold.PLP.Chemscore.CHOScore>  (579) 
0.0000

>  <Gold.PLP.Chemscore.Hbond>  (579) 
0.9920

>  <Gold.PLP.Chemscore.Internal.Correction>  (579) 
1.2027

>  <Gold.PLP.Chemscore.Metal>  (579) 
0.0000

>  <Gold.PLP.Fitness>  (579) 
63.3413

>  <Gold.PLP.PLP>  (579) 
-63.2511

>  <Gold.PLP.ligand.clash>  (579) 
0.0004

>  <Gold.PLP.ligand.torsion>  (579) 
2.0441

>  <Gold.PLP.part.buried>  (579) 
-8.4864

>  <Gold.PLP.part.hbond>  (579) 
-3.0000

>  <Gold.PLP.part.metal>  (579) 
0.0000

>  <Gold.PLP.part.nonpolar>  (579) 
-52.0594

>  <Gold.PLP.part.repulsive>  (579) 
0.0764

>  <Gold.Protein.RotatedAtoms>  (579) 


>  <Gold.Protein.RotatedTorsions>  (579) 


>  <Gold.Protein.RotatedWaterAtoms>  (579) 


>  <Gold.Version>  (579) 
5.3.0

>  <PLP.Chemscore.CHOScore>  (579) 


>  <PLP.Chemscore.Hbond>  (579) 


>  <PLP.Chemscore.Internal.Correction>  (579) 


>  <PLP.Chemscore.Metal>  (579) 


>  <PLP.Fitness>  (579) 


>  <PLP.PLP>  (579) 


>  <PLP.ligand.clash>  (579) 


>  <PLP.ligand.torsion>  (579) 


>  <PLP.part.buried>  (579) 


>  <PLP.part.hbond>  (579) 


>  <PLP.part.metal>  (579) 


>  <PLP.part.nonpolar>  (579) 


>  <PLP.part.repulsive>  (579) 


>  <Version>  (579) 


$$$$
3579|Compound_2176|Compounds_3D_F|sdf|641|dock2|1
     RDKit          3D

 39 43  0  0  0  0  0  0  0  0999 V2000
   -8.5172  -20.2667    7.1448 O   0  0  0  0  0  0  0  0  0  0  0  0
   -8.6451  -19.8910    8.4402 C   0  0  0  0  0  0  0  0  0  0  0  0
   -9.2590  -20.7393    9.3740 C   0  0  0  0  0  0  0  0  0  0  0  0
   -9.8195  -21.9734    9.3160 N   0  0  0  0  0  0  0  0  0  0  0  0
  -10.2519  -22.3086   10.4965 C   0  0  0  0  0  0  0  0  0  0  0  0
   -9.9953  -21.3091   11.3883 N   0  0  0  0  0  0  0  0  0  0  0  0
   -9.3650  -20.2992   10.7054 C   0  0  0  0  0  0  0  0  0  0  0  0
   -8.8844  -19.1053   11.0318 N   0  0  0  0  0  0  0  0  0  0  0  0
   -8.3142  -18.3376   10.1186 C   0  0  0  0  0  0  0  0  0  0  0  0
   -8.1891  -18.7162    8.8526 N   0  0  0  0  0  0  0  0  0  0  0  0
   -7.8235  -17.0944   10.4979 N   0  0  0  0  0  0  0  0  0  0  0  0
   -8.6561  -16.1707   11.0162 C   0  0  0  0  0  0  0  0  0  0  0  0
   -9.8369  -16.4249   11.1524 O   0  0  0  0  0  0  0  0  0  0  0  0
   -8.1332  -14.8480   11.4204 C   0  0  0  0  0  0  0  0  0  0  0  0
   -8.8780  -13.6943   11.1710 C   0  0  0  0  0  0  0  0  0  0  0  0
   -8.3838  -12.4630   11.5503 C   0  0  0  0  0  0  0  0  0  0  0  0
   -7.1535  -12.3709   12.1768 C   0  0  0  0  0  0  0  0  0  0  0  0
   -6.4112  -13.5108   12.4267 C   0  0  0  0  0  0  0  0  0  0  0  0
   -6.8954  -14.7488   12.0574 C   0  0  0  0  0  0  0  0  0  0  0  0
   -6.6205  -11.0227   12.5880 C   0  0  0  0  0  0  0  0  0  0  0  0
   -5.1564  -10.9012   12.1587 C   0  0  0  0  0  0  0  0  0  0  0  0
   -7.4427   -9.9224   11.9146 C   0  0  0  0  0  0  0  0  0  0  0  0
  -10.3304  -21.3126   12.8147 C   0  0  0  0  0  0  0  0  0  0  0  0
   -9.5437  -22.3097   13.5008 O   0  0  0  0  0  0  0  0  0  0  0  0
  -10.4251  -23.1811   14.1880 C   0  0  0  0  0  0  0  0  0  0  0  0
   -9.9667  -24.6083   14.4016 C   0  0  0  0  0  0  0  0  0  0  0  0
  -10.9602  -25.2452   15.2404 O   0  0  0  0  0  0  0  0  0  0  0  0
  -12.5367  -25.1322   14.8677 P   0  0  0  0  0  0  0  0  0  0  0  0
  -13.3562  -25.2652   16.0927 O   0  0  0  0  0  0  0  0  0  0  0  0
  -12.9360  -26.2806   13.8122 O   0  0  0  0  0  0  0  0  0  0  0  0
  -12.7613  -23.6595   14.2039 O   0  0  0  0  0  0  0  0  0  0  0  0
  -11.7200  -23.1915   13.3307 C   0  0  0  0  0  0  0  0  0  0  0  0
  -11.8248  -21.6864   13.0038 C   0  0  0  0  0  0  0  0  0  0  0  0
  -12.5867  -21.4695   11.7865 O   0  0  0  0  0  0  0  0  0  0  0  0
  -13.9146  -21.6517   11.8580 C   0  0  0  0  0  0  0  0  0  0  0  0
  -14.4103  -22.0903   12.8687 O   0  0  0  0  0  0  0  0  0  0  0  0
  -14.7872  -21.3075   10.6787 C   0  0  0  0  0  0  0  0  0  0  0  0
  -14.7081  -19.8038   10.4065 C   0  0  0  0  0  0  0  0  0  0  0  0
  -13.7301  -19.5444    9.2594 C   0  0  0  0  0  0  0  0  0  0  0  0
  1  2  1  0
  2  3  2  0
  2 10  1  0
  3  4  1  0
  3  7  1  0
  4  5  2  0
  5  6  1  0
  6  7  1  0
  6 23  1  0
  7  8  2  0
  8  9  1  0
  9 10  2  0
  9 11  1  0
 11 12  1  0
 12 13  2  0
 12 14  1  0
 14 15  2  0
 14 19  1  0
 15 16  1  0
 16 17  2  0
 17 18  1  0
 17 20  1  0
 18 19  2  0
 20 21  1  0
 20 22  1  0
 23 24  1  0
 23 33  1  0
 24 25  1  0
 25 26  1  0
 25 32  1  0
 26 27  1  0
 27 28  1  0
 28 29  2  0
 28 30  1  0
 28 31  1  0
 31 32  1  0
 32 33  1  0
 33 34  1  0
 34 35  1  0
 35 36  2  0
 35 37  1  0
 37 38  1  0
 38 39  1  0
M  END
>  <Gold.Gold.Protein.RotatedWaterAtoms>  (580) 


>  <Gold.Id.Protein>  (580) 


>  <Gold.PLP.Chemscore.CHOScore>  (580) 
0.0000

>  <Gold.PLP.Chemscore.Hbond>  (580) 
2.3629

>  <Gold.PLP.Chemscore.Internal.Correction>  (580) 
1.1274

>  <Gold.PLP.Chemscore.Metal>  (580) 
0.0000

>  <Gold.PLP.Fitness>  (580) 
68.4270

>  <Gold.PLP.PLP>  (580) 
-64.8145

>  <Gold.PLP.ligand.clash>  (580) 
0.5894

>  <Gold.PLP.ligand.torsion>  (580) 
2.0072

>  <Gold.PLP.part.buried>  (580) 
-5.0176

>  <Gold.PLP.part.hbond>  (580) 
-5.3419

>  <Gold.PLP.part.metal>  (580) 
0.0000

>  <Gold.PLP.part.nonpolar>  (580) 
-55.6483

>  <Gold.PLP.part.repulsive>  (580) 
0.2182

>  <Gold.Protein.RotatedAtoms>  (580) 


>  <Gold.Protein.RotatedTorsions>  (580) 


>  <Gold.Protein.RotatedWaterAtoms>  (580) 


>  <Gold.Version>  (580) 
5.3.0

>  <PLP.Chemscore.CHOScore>  (580) 


>  <PLP.Chemscore.Hbond>  (580) 


>  <PLP.Chemscore.Internal.Correction>  (580) 


>  <PLP.Chemscore.Metal>  (580) 


>  <PLP.Fitness>  (580) 


>  <PLP.PLP>  (580) 


>  <PLP.ligand.clash>  (580) 


>  <PLP.ligand.torsion>  (580) 


>  <PLP.part.buried>  (580) 


>  <PLP.part.hbond>  (580) 


>  <PLP.part.metal>  (580) 


>  <PLP.part.nonpolar>  (580) 


>  <PLP.part.repulsive>  (580) 


>  <Version>  (580) 


$$$$
3580|Compound_2176|Compounds_3D_F|sdf|641|dock3|1
     RDKit          3D

 39 43  0  0  0  0  0  0  0  0999 V2000
   -8.5783  -24.2303    7.1332 O   0  0  0  0  0  0  0  0  0  0  0  0
   -9.3215  -23.3360    7.8284 C   0  0  0  0  0  0  0  0  0  0  0  0
  -10.7226  -23.4091    7.8191 C   0  0  0  0  0  0  0  0  0  0  0  0
  -11.6300  -24.2303    7.2338 N   0  0  0  0  0  0  0  0  0  0  0  0
  -12.8312  -23.8499    7.5583 C   0  0  0  0  0  0  0  0  0  0  0  0
  -12.7704  -22.7588    8.3743 N   0  0  0  0  0  0  0  0  0  0  0  0
  -11.4446  -22.4554    8.5585 C   0  0  0  0  0  0  0  0  0  0  0  0
  -10.7817  -21.5251    9.2354 N   0  0  0  0  0  0  0  0  0  0  0  0
   -9.4600  -21.4928    9.2152 C   0  0  0  0  0  0  0  0  0  0  0  0
   -8.7401  -22.3763    8.5349 N   0  0  0  0  0  0  0  0  0  0  0  0
   -8.8015  -20.5041    9.9356 N   0  0  0  0  0  0  0  0  0  0  0  0
   -9.0921  -19.2063    9.7199 C   0  0  0  0  0  0  0  0  0  0  0  0
   -9.9309  -18.9002    8.8951 O   0  0  0  0  0  0  0  0  0  0  0  0
   -8.3914  -18.1544   10.4873 C   0  0  0  0  0  0  0  0  0  0  0  0
   -9.0804  -17.0140   10.9027 C   0  0  0  0  0  0  0  0  0  0  0  0
   -8.4203  -16.0359   11.6181 C   0  0  0  0  0  0  0  0  0  0  0  0
   -7.0790  -16.1843   11.9240 C   0  0  0  0  0  0  0  0  0  0  0  0
   -6.3913  -17.3125   11.5153 C   0  0  0  0  0  0  0  0  0  0  0  0
   -7.0400  -18.3006   10.8037 C   0  0  0  0  0  0  0  0  0  0  0  0
   -6.3650  -15.1119   12.7056 C   0  0  0  0  0  0  0  0  0  0  0  0
   -4.9161  -15.0090   12.2230 C   0  0  0  0  0  0  0  0  0  0  0  0
   -7.0701  -13.7711   12.4930 C   0  0  0  0  0  0  0  0  0  0  0  0
  -13.9112  -22.0416    8.9497 C   0  0  0  0  0  0  0  0  0  0  0  0
  -13.9818  -20.7095    8.3981 O   0  0  0  0  0  0  0  0  0  0  0  0
  -13.9788  -19.7805    9.4682 C   0  0  0  0  0  0  0  0  0  0  0  0
  -13.3903  -18.4115    9.1999 C   0  0  0  0  0  0  0  0  0  0  0  0
  -13.6341  -17.6126   10.3825 O   0  0  0  0  0  0  0  0  0  0  0  0
  -13.2542  -18.1918   11.8512 P   0  0  0  0  0  0  0  0  0  0  0  0
  -14.1145  -17.5651   12.8794 O   0  0  0  0  0  0  0  0  0  0  0  0
  -11.7054  -17.8952   12.1756 O   0  0  0  0  0  0  0  0  0  0  0  0
  -13.5188  -19.8005   11.8081 O   0  0  0  0  0  0  0  0  0  0  0  0
  -13.1558  -20.4709   10.5897 C   0  0  0  0  0  0  0  0  0  0  0  0
  -13.7258  -21.9017   10.4842 C   0  0  0  0  0  0  0  0  0  0  0  0
  -12.7814  -22.8779   10.9983 O   0  0  0  0  0  0  0  0  0  0  0  0
  -12.5582  -22.8719   12.3219 C   0  0  0  0  0  0  0  0  0  0  0  0
  -13.4327  -22.5252   13.0800 O   0  0  0  0  0  0  0  0  0  0  0  0
  -11.2181  -23.2990   12.8623 C   0  0  0  0  0  0  0  0  0  0  0  0
  -10.5589  -22.1208   13.5828 C   0  0  0  0  0  0  0  0  0  0  0  0
  -11.2628  -21.8828   14.9198 C   0  0  0  0  0  0  0  0  0  0  0  0
  1  2  1  0
  2  3  2  0
  2 10  1  0
  3  4  1  0
  3  7  1  0
  4  5  2  0
  5  6  1  0
  6  7  1  0
  6 23  1  0
  7  8  2  0
  8  9  1  0
  9 10  2  0
  9 11  1  0
 11 12  1  0
 12 13  2  0
 12 14  1  0
 14 15  2  0
 14 19  1  0
 15 16  1  0
 16 17  2  0
 17 18  1  0
 17 20  1  0
 18 19  2  0
 20 21  1  0
 20 22  1  0
 23 24  1  0
 23 33  1  0
 24 25  1  0
 25 26  1  0
 25 32  1  0
 26 27  1  0
 27 28  1  0
 28 29  2  0
 28 30  1  0
 28 31  1  0
 31 32  1  0
 32 33  1  0
 33 34  1  0
 34 35  1  0
 35 36  2  0
 35 37  1  0
 37 38  1  0
 38 39  1  0
M  END
>  <Gold.Gold.Protein.RotatedWaterAtoms>  (581) 


>  <Gold.Id.Protein>  (581) 


>  <Gold.PLP.Chemscore.CHOScore>  (581) 
0.0000

>  <Gold.PLP.Chemscore.Hbond>  (581) 
2.7700

>  <Gold.PLP.Chemscore.Internal.Correction>  (581) 
1.1274

>  <Gold.PLP.Chemscore.Metal>  (581) 
0.0000

>  <Gold.PLP.Fitness>  (581) 
57.5297

>  <Gold.PLP.PLP>  (581) 
-52.7221

>  <Gold.PLP.ligand.clash>  (581) 
0.0000

>  <Gold.PLP.ligand.torsion>  (581) 
2.3149

>  <Gold.PLP.part.buried>  (581) 
-1.1467

>  <Gold.PLP.part.hbond>  (581) 
-4.9438

>  <Gold.PLP.part.metal>  (581) 
0.0000

>  <Gold.PLP.part.nonpolar>  (581) 
-47.9412

>  <Gold.PLP.part.repulsive>  (581) 
1.8478

>  <Gold.Protein.RotatedAtoms>  (581) 


>  <Gold.Protein.RotatedTorsions>  (581) 


>  <Gold.Protein.RotatedWaterAtoms>  (581) 


>  <Gold.Version>  (581) 
5.3.0

>  <PLP.Chemscore.CHOScore>  (581) 


>  <PLP.Chemscore.Hbond>  (581) 


>  <PLP.Chemscore.Internal.Correction>  (581) 


>  <PLP.Chemscore.Metal>  (581) 


>  <PLP.Fitness>  (581) 


>  <PLP.PLP>  (581) 


>  <PLP.ligand.clash>  (581) 


>  <PLP.ligand.torsion>  (581) 


>  <PLP.part.buried>  (581) 


>  <PLP.part.hbond>  (581) 


>  <PLP.part.metal>  (581) 


>  <PLP.part.nonpolar>  (581) 


>  <PLP.part.repulsive>  (581) 


>  <Version>  (581) 


$$$$
3581|Compound_2176|Compounds_3D_F|sdf|641|dock4|1
     RDKit          3D

 39 43  0  0  0  0  0  0  0  0999 V2000
   -8.4364  -20.1882    7.3500 O   0  0  0  0  0  0  0  0  0  0  0  0
   -8.8510  -19.7534    8.5643 C   0  0  0  0  0  0  0  0  0  0  0  0
   -9.4340  -20.6408    9.4814 C   0  0  0  0  0  0  0  0  0  0  0  0
   -9.7232  -21.9663    9.4726 N   0  0  0  0  0  0  0  0  0  0  0  0
  -10.2731  -22.2971   10.6045 C   0  0  0  0  0  0  0  0  0  0  0  0
  -10.3711  -21.2029   11.4127 N   0  0  0  0  0  0  0  0  0  0  0  0
   -9.8462  -20.1360   10.7275 C   0  0  0  0  0  0  0  0  0  0  0  0
   -9.6713  -18.8467   10.9925 N   0  0  0  0  0  0  0  0  0  0  0  0
   -9.1182  -18.0456   10.0978 C   0  0  0  0  0  0  0  0  0  0  0  0
   -8.7107  -18.4816    8.9123 N   0  0  0  0  0  0  0  0  0  0  0  0
   -8.9521  -16.7022   10.4111 N   0  0  0  0  0  0  0  0  0  0  0  0
   -7.8404  -16.2922   11.0524 C   0  0  0  0  0  0  0  0  0  0  0  0
   -6.9823  -17.0974   11.3566 O   0  0  0  0  0  0  0  0  0  0  0  0
   -7.6638  -14.8623   11.3850 C   0  0  0  0  0  0  0  0  0  0  0  0
   -8.7227  -13.9685   11.2184 C   0  0  0  0  0  0  0  0  0  0  0  0
   -8.5509  -12.6353   11.5302 C   0  0  0  0  0  0  0  0  0  0  0  0
   -7.3328  -12.1845   12.0074 C   0  0  0  0  0  0  0  0  0  0  0  0
   -6.2802  -13.0657   12.1748 C   0  0  0  0  0  0  0  0  0  0  0  0
   -6.4394  -14.4023   11.8718 C   0  0  0  0  0  0  0  0  0  0  0  0
   -7.1529  -10.7270   12.3457 C   0  0  0  0  0  0  0  0  0  0  0  0
   -5.7592  -10.2706   11.9074 C   0  0  0  0  0  0  0  0  0  0  0  0
   -8.2134   -9.8998   11.6168 C   0  0  0  0  0  0  0  0  0  0  0  0
  -10.9335  -21.1718   12.7654 C   0  0  0  0  0  0  0  0  0  0  0  0
  -10.0765  -21.9010   13.6696 O   0  0  0  0  0  0  0  0  0  0  0  0
  -10.8506  -22.8966   14.3160 C   0  0  0  0  0  0  0  0  0  0  0  0
  -10.1361  -24.1565   14.7574 C   0  0  0  0  0  0  0  0  0  0  0  0
  -11.0945  -24.9390   15.5092 O   0  0  0  0  0  0  0  0  0  0  0  0
  -12.5718  -25.2258   14.8990 P   0  0  0  0  0  0  0  0  0  0  0  0
  -13.5376  -25.4488   15.9978 O   0  0  0  0  0  0  0  0  0  0  0  0
  -12.5281  -26.5152   13.9358 O   0  0  0  0  0  0  0  0  0  0  0  0
  -12.9955  -23.9030   14.0443 O   0  0  0  0  0  0  0  0  0  0  0  0
  -11.9485  -23.2758   13.2852 C   0  0  0  0  0  0  0  0  0  0  0  0
  -12.3209  -21.8671   12.7752 C   0  0  0  0  0  0  0  0  0  0  0  0
  -12.8950  -21.9303   11.4427 O   0  0  0  0  0  0  0  0  0  0  0  0
  -14.1271  -22.4515   11.3338 C   0  0  0  0  0  0  0  0  0  0  0  0
  -14.7684  -22.6978   12.3277 O   0  0  0  0  0  0  0  0  0  0  0  0
  -14.7112  -22.7277    9.9726 C   0  0  0  0  0  0  0  0  0  0  0  0
  -14.7638  -21.4283    9.1662 C   0  0  0  0  0  0  0  0  0  0  0  0
  -14.8262  -21.7570    7.6736 C   0  0  0  0  0  0  0  0  0  0  0  0
  1  2  1  0
  2  3  2  0
  2 10  1  0
  3  4  1  0
  3  7  1  0
  4  5  2  0
  5  6  1  0
  6  7  1  0
  6 23  1  0
  7  8  2  0
  8  9  1  0
  9 10  2  0
  9 11  1  0
 11 12  1  0
 12 13  2  0
 12 14  1  0
 14 15  2  0
 14 19  1  0
 15 16  1  0
 16 17  2  0
 17 18  1  0
 17 20  1  0
 18 19  2  0
 20 21  1  0
 20 22  1  0
 23 24  1  0
 23 33  1  0
 24 25  1  0
 25 26  1  0
 25 32  1  0
 26 27  1  0
 27 28  1  0
 28 29  2  0
 28 30  1  0
 28 31  1  0
 31 32  1  0
 32 33  1  0
 33 34  1  0
 34 35  1  0
 35 36  2  0
 35 37  1  0
 37 38  1  0
 38 39  1  0
M  END
>  <Gold.Gold.Protein.RotatedWaterAtoms>  (582) 


>  <Gold.Id.Protein>  (582) 


>  <Gold.PLP.Chemscore.CHOScore>  (582) 
0.0000

>  <Gold.PLP.Chemscore.Hbond>  (582) 
1.5828

>  <Gold.PLP.Chemscore.Internal.Correction>  (582) 
0.8270

>  <Gold.PLP.Chemscore.Metal>  (582) 
0.0000

>  <Gold.PLP.Fitness>  (582) 
66.1676

>  <Gold.PLP.PLP>  (582) 
-64.1256

>  <Gold.PLP.ligand.clash>  (582) 
0.0000

>  <Gold.PLP.ligand.torsion>  (582) 
1.7668

>  <Gold.PLP.part.buried>  (582) 
-6.3719

>  <Gold.PLP.part.hbond>  (582) 
-4.3163

>  <Gold.PLP.part.metal>  (582) 
0.0000

>  <Gold.PLP.part.nonpolar>  (582) 
-52.8908

>  <Gold.PLP.part.repulsive>  (582) 
0.1180

>  <Gold.Protein.RotatedAtoms>  (582) 


>  <Gold.Protein.RotatedTorsions>  (582) 


>  <Gold.Protein.RotatedWaterAtoms>  (582) 


>  <Gold.Version>  (582) 
5.3.0

>  <PLP.Chemscore.CHOScore>  (582) 


>  <PLP.Chemscore.Hbond>  (582) 


>  <PLP.Chemscore.Internal.Correction>  (582) 


>  <PLP.Chemscore.Metal>  (582) 


>  <PLP.Fitness>  (582) 


>  <PLP.PLP>  (582) 


>  <PLP.ligand.clash>  (582) 


>  <PLP.ligand.torsion>  (582) 


>  <PLP.part.buried>  (582) 


>  <PLP.part.hbond>  (582) 


>  <PLP.part.metal>  (582) 


>  <PLP.part.nonpolar>  (582) 


>  <PLP.part.repulsive>  (582) 


>  <Version>  (582) 


$$$$
3582|Compound_2176|Compounds_3D_F|sdf|641|dock5|1
     RDKit          3D

 39 43  0  0  0  0  0  0  0  0999 V2000
   -9.1961  -20.9593    7.8434 O   0  0  0  0  0  0  0  0  0  0  0  0
   -9.2634  -20.4610    9.1015 C   0  0  0  0  0  0  0  0  0  0  0  0
   -9.8438  -21.2085   10.1372 C   0  0  0  0  0  0  0  0  0  0  0  0
  -10.4182  -22.4347   10.2209 N   0  0  0  0  0  0  0  0  0  0  0  0
  -10.8016  -22.6506   11.4455 C   0  0  0  0  0  0  0  0  0  0  0  0
  -10.4964  -21.5749   12.2263 N   0  0  0  0  0  0  0  0  0  0  0  0
   -9.8870  -20.6430   11.4240 C   0  0  0  0  0  0  0  0  0  0  0  0
   -9.3810  -19.4302   11.6144 N   0  0  0  0  0  0  0  0  0  0  0  0
   -8.8441  -18.7604   10.6087 C   0  0  0  0  0  0  0  0  0  0  0  0
   -8.7784  -19.2588    9.3803 N   0  0  0  0  0  0  0  0  0  0  0  0
   -8.3252  -17.4937   10.8466 N   0  0  0  0  0  0  0  0  0  0  0  0
   -9.0579  -16.5793   11.5117 C   0  0  0  0  0  0  0  0  0  0  0  0
  -10.1729  -16.8624   11.9040 O   0  0  0  0  0  0  0  0  0  0  0  0
   -8.5049  -15.2316   11.7652 C   0  0  0  0  0  0  0  0  0  0  0  0
   -7.1347  -15.0007   11.6345 C   0  0  0  0  0  0  0  0  0  0  0  0
   -6.6252  -13.7407   11.8733 C   0  0  0  0  0  0  0  0  0  0  0  0
   -7.4694  -12.7078   12.2407 C   0  0  0  0  0  0  0  0  0  0  0  0
   -8.8280  -12.9307   12.3714 C   0  0  0  0  0  0  0  0  0  0  0  0
   -9.3517  -14.1843   12.1310 C   0  0  0  0  0  0  0  0  0  0  0  0
   -6.9054  -11.3345   12.4997 C   0  0  0  0  0  0  0  0  0  0  0  0
   -5.4052  -11.3344   12.1962 C   0  0  0  0  0  0  0  0  0  0  0  0
   -7.6083  -10.3167   11.5996 C   0  0  0  0  0  0  0  0  0  0  0  0
  -10.7685  -21.4387   13.6596 C   0  0  0  0  0  0  0  0  0  0  0  0
   -9.9867  -22.3996   14.4006 O   0  0  0  0  0  0  0  0  0  0  0  0
  -10.8659  -23.1726   15.1992 C   0  0  0  0  0  0  0  0  0  0  0  0
  -10.4471  -24.5913   15.5223 C   0  0  0  0  0  0  0  0  0  0  0  0
  -11.4237  -25.1132   16.4551 O   0  0  0  0  0  0  0  0  0  0  0  0
  -13.0103  -24.9747   16.1380 P   0  0  0  0  0  0  0  0  0  0  0  0
  -13.7793  -24.9672   17.4023 O   0  0  0  0  0  0  0  0  0  0  0  0
  -13.4941  -26.1967   15.2081 O   0  0  0  0  0  0  0  0  0  0  0  0
  -13.2140  -23.5596   15.3532 O   0  0  0  0  0  0  0  0  0  0  0  0
  -12.1968  -23.2106   14.3997 C   0  0  0  0  0  0  0  0  0  0  0  0
  -12.2649  -21.7378   13.9423 C   0  0  0  0  0  0  0  0  0  0  0  0
  -13.0718  -21.6017   12.7424 O   0  0  0  0  0  0  0  0  0  0  0  0
  -13.2759  -20.3572   12.2829 C   0  0  0  0  0  0  0  0  0  0  0  0
  -12.8086  -19.4118   12.8724 O   0  0  0  0  0  0  0  0  0  0  0  0
  -14.0860  -20.1392   11.0312 C   0  0  0  0  0  0  0  0  0  0  0  0
  -13.2760  -19.3032   10.0379 C   0  0  0  0  0  0  0  0  0  0  0  0
  -14.1853  -18.8463    8.8959 C   0  0  0  0  0  0  0  0  0  0  0  0
  1  2  1  0
  2  3  2  0
  2 10  1  0
  3  4  1  0
  3  7  1  0
  4  5  2  0
  5  6  1  0
  6  7  1  0
  6 23  1  0
  7  8  2  0
  8  9  1  0
  9 10  2  0
  9 11  1  0
 11 12  1  0
 12 13  2  0
 12 14  1  0
 14 15  2  0
 14 19  1  0
 15 16  1  0
 16 17  2  0
 17 18  1  0
 17 20  1  0
 18 19  2  0
 20 21  1  0
 20 22  1  0
 23 24  1  0
 23 33  1  0
 24 25  1  0
 25 26  1  0
 25 32  1  0
 26 27  1  0
 27 28  1  0
 28 29  2  0
 28 30  1  0
 28 31  1  0
 31 32  1  0
 32 33  1  0
 33 34  1  0
 34 35  1  0
 35 36  2  0
 35 37  1  0
 37 38  1  0
 38 39  1  0
M  END
>  <Gold.Gold.Protein.RotatedWaterAtoms>  (583) 


>  <Gold.Id.Protein>  (583) 


>  <Gold.PLP.Chemscore.CHOScore>  (583) 
0.0000

>  <Gold.PLP.Chemscore.Hbond>  (583) 
1.0000

>  <Gold.PLP.Chemscore.Internal.Correction>  (583) 
0.8270

>  <Gold.PLP.Chemscore.Metal>  (583) 
0.0000

>  <Gold.PLP.Fitness>  (583) 
67.9868

>  <Gold.PLP.PLP>  (583) 
-66.9016

>  <Gold.PLP.ligand.clash>  (583) 
1.1864

>  <Gold.PLP.ligand.torsion>  (583) 
0.7777

>  <Gold.PLP.part.buried>  (583) 
-4.0630

>  <Gold.PLP.part.hbond>  (583) 
-3.9416

>  <Gold.PLP.part.metal>  (583) 
0.0000

>  <Gold.PLP.part.nonpolar>  (583) 
-58.0187

>  <Gold.PLP.part.repulsive>  (583) 
0.2942

>  <Gold.Protein.RotatedAtoms>  (583) 


>  <Gold.Protein.RotatedTorsions>  (583) 


>  <Gold.Protein.RotatedWaterAtoms>  (583) 


>  <Gold.Version>  (583) 
5.3.0

>  <PLP.Chemscore.CHOScore>  (583) 


>  <PLP.Chemscore.Hbond>  (583) 


>  <PLP.Chemscore.Internal.Correction>  (583) 


>  <PLP.Chemscore.Metal>  (583) 


>  <PLP.Fitness>  (583) 


>  <PLP.PLP>  (583) 


>  <PLP.ligand.clash>  (583) 


>  <PLP.ligand.torsion>  (583) 


>  <PLP.part.buried>  (583) 


>  <PLP.part.hbond>  (583) 


>  <PLP.part.metal>  (583) 


>  <PLP.part.nonpolar>  (583) 


>  <PLP.part.repulsive>  (583) 


>  <Version>  (583) 


$$$$
3583|Compound_2176|Compounds_3D_F|sdf|641|dock6|1
     RDKit          3D

 39 43  0  0  0  0  0  0  0  0999 V2000
   -8.4908  -20.2967    7.0917 O   0  0  0  0  0  0  0  0  0  0  0  0
   -8.6627  -19.8745    8.3675 C   0  0  0  0  0  0  0  0  0  0  0  0
   -9.2494  -20.7141    9.3263 C   0  0  0  0  0  0  0  0  0  0  0  0
   -9.7439  -21.9774    9.3117 N   0  0  0  0  0  0  0  0  0  0  0  0
  -10.1808  -22.2852   10.4980 C   0  0  0  0  0  0  0  0  0  0  0  0
   -9.9935  -21.2372   11.3504 N   0  0  0  0  0  0  0  0  0  0  0  0
   -9.4035  -20.2250   10.6357 C   0  0  0  0  0  0  0  0  0  0  0  0
   -8.9919  -18.9948   10.9188 N   0  0  0  0  0  0  0  0  0  0  0  0
   -8.4451  -18.2370    9.9833 C   0  0  0  0  0  0  0  0  0  0  0  0
   -8.2764  -18.6611    8.7370 N   0  0  0  0  0  0  0  0  0  0  0  0
   -8.0269  -16.9549   10.3174 N   0  0  0  0  0  0  0  0  0  0  0  0
   -8.7445  -16.2170   11.1868 C   0  0  0  0  0  0  0  0  0  0  0  0
   -9.7578  -16.6730   11.6794 O   0  0  0  0  0  0  0  0  0  0  0  0
   -8.2986  -14.8528   11.5425 C   0  0  0  0  0  0  0  0  0  0  0  0
   -9.2382  -13.8595   11.8223 C   0  0  0  0  0  0  0  0  0  0  0  0
   -8.8152  -12.5883   12.1530 C   0  0  0  0  0  0  0  0  0  0  0  0
   -7.4635  -12.2979   12.2080 C   0  0  0  0  0  0  0  0  0  0  0  0
   -6.5279  -13.2783   11.9320 C   0  0  0  0  0  0  0  0  0  0  0  0
   -6.9366  -14.5549   11.6048 C   0  0  0  0  0  0  0  0  0  0  0  0
   -7.0093  -10.9073   12.5699 C   0  0  0  0  0  0  0  0  0  0  0  0
   -5.5434  -10.7292   12.1672 C   0  0  0  0  0  0  0  0  0  0  0  0
   -7.8699   -9.8813   11.8303 C   0  0  0  0  0  0  0  0  0  0  0  0
  -10.3551  -21.1987   12.7698 C   0  0  0  0  0  0  0  0  0  0  0  0
   -9.5844  -22.1775   13.4989 O   0  0  0  0  0  0  0  0  0  0  0  0
  -10.4811  -23.0265   14.1944 C   0  0  0  0  0  0  0  0  0  0  0  0
  -10.0311  -24.4481   14.4575 C   0  0  0  0  0  0  0  0  0  0  0  0
  -11.0420  -25.0581   15.2955 O   0  0  0  0  0  0  0  0  0  0  0  0
  -12.6109  -24.9519   14.8902 P   0  0  0  0  0  0  0  0  0  0  0  0
  -13.4535  -25.0474   16.1031 O   0  0  0  0  0  0  0  0  0  0  0  0
  -12.9940  -26.1293   13.8610 O   0  0  0  0  0  0  0  0  0  0  0  0
  -12.8186  -23.4985   14.1802 O   0  0  0  0  0  0  0  0  0  0  0  0
  -11.7598  -23.0584   13.3136 C   0  0  0  0  0  0  0  0  0  0  0  0
  -11.8539  -21.5631   12.9416 C   0  0  0  0  0  0  0  0  0  0  0  0
  -12.5923  -21.3795   11.7045 O   0  0  0  0  0  0  0  0  0  0  0  0
  -13.9070  -21.6488   11.7336 C   0  0  0  0  0  0  0  0  0  0  0  0
  -14.3876  -22.2080   12.6907 O   0  0  0  0  0  0  0  0  0  0  0  0
  -14.7836  -21.2522   10.5740 C   0  0  0  0  0  0  0  0  0  0  0  0
  -14.7707  -19.7297   10.4214 C   0  0  0  0  0  0  0  0  0  0  0  0
  -13.7849  -19.3363    9.3201 C   0  0  0  0  0  0  0  0  0  0  0  0
  1  2  1  0
  2  3  2  0
  2 10  1  0
  3  4  1  0
  3  7  1  0
  4  5  2  0
  5  6  1  0
  6  7  1  0
  6 23  1  0
  7  8  2  0
  8  9  1  0
  9 10  2  0
  9 11  1  0
 11 12  1  0
 12 13  2  0
 12 14  1  0
 14 15  2  0
 14 19  1  0
 15 16  1  0
 16 17  2  0
 17 18  1  0
 17 20  1  0
 18 19  2  0
 20 21  1  0
 20 22  1  0
 23 24  1  0
 23 33  1  0
 24 25  1  0
 25 26  1  0
 25 32  1  0
 26 27  1  0
 27 28  1  0
 28 29  2  0
 28 30  1  0
 28 31  1  0
 31 32  1  0
 32 33  1  0
 33 34  1  0
 34 35  1  0
 35 36  2  0
 35 37  1  0
 37 38  1  0
 38 39  1  0
M  END
>  <Gold.Gold.Protein.RotatedWaterAtoms>  (584) 


>  <Gold.Id.Protein>  (584) 


>  <Gold.PLP.Chemscore.CHOScore>  (584) 
0.0000

>  <Gold.PLP.Chemscore.Hbond>  (584) 
2.5563

>  <Gold.PLP.Chemscore.Internal.Correction>  (584) 
0.8270

>  <Gold.PLP.Chemscore.Metal>  (584) 
0.0000

>  <Gold.PLP.Fitness>  (584) 
69.2466

>  <Gold.PLP.PLP>  (584) 
-64.2478

>  <Gold.PLP.ligand.clash>  (584) 
0.2654

>  <Gold.PLP.ligand.torsion>  (584) 
1.6159

>  <Gold.PLP.part.buried>  (584) 
-3.2803

>  <Gold.PLP.part.hbond>  (584) 
-6.0000

>  <Gold.PLP.part.metal>  (584) 
0.0000

>  <Gold.PLP.part.nonpolar>  (584) 
-55.0406

>  <Gold.PLP.part.repulsive>  (584) 
0.2193

>  <Gold.Protein.RotatedAtoms>  (584) 


>  <Gold.Protein.RotatedTorsions>  (584) 


>  <Gold.Protein.RotatedWaterAtoms>  (584) 


>  <Gold.Version>  (584) 
5.3.0

>  <PLP.Chemscore.CHOScore>  (584) 


>  <PLP.Chemscore.Hbond>  (584) 


>  <PLP.Chemscore.Internal.Correction>  (584) 


>  <PLP.Chemscore.Metal>  (584) 


>  <PLP.Fitness>  (584) 


>  <PLP.PLP>  (584) 


>  <PLP.ligand.clash>  (584) 


>  <PLP.ligand.torsion>  (584) 


>  <PLP.part.buried>  (584) 


>  <PLP.part.hbond>  (584) 


>  <PLP.part.metal>  (584) 


>  <PLP.part.nonpolar>  (584) 


>  <PLP.part.repulsive>  (584) 


>  <Version>  (584) 


$$$$
3584|Compound_2177|Compounds_3D_F|sdf|642|dock1|1
     RDKit          3D

 38 42  0  0  0  0  0  0  0  0999 V2000
   -7.5777  -20.7480    7.5058 O   0  0  0  0  0  0  0  0  0  0  0  0
   -8.1151  -20.3496    8.6840 C   0  0  0  0  0  0  0  0  0  0  0  0
   -8.7151  -21.2786    9.5473 C   0  0  0  0  0  0  0  0  0  0  0  0
   -8.9213  -22.6190    9.5101 N   0  0  0  0  0  0  0  0  0  0  0  0
   -9.5398  -22.9923   10.5923 C   0  0  0  0  0  0  0  0  0  0  0  0
   -9.7695  -21.9131   11.3940 N   0  0  0  0  0  0  0  0  0  0  0  0
   -9.2568  -20.8104   10.7577 C   0  0  0  0  0  0  0  0  0  0  0  0
   -9.1829  -19.5153   11.0408 N   0  0  0  0  0  0  0  0  0  0  0  0
   -8.6091  -18.6744   10.1970 C   0  0  0  0  0  0  0  0  0  0  0  0
   -8.0811  -19.0748    9.0470 N   0  0  0  0  0  0  0  0  0  0  0  0
   -8.5512  -17.3263   10.5278 N   0  0  0  0  0  0  0  0  0  0  0  0
   -7.4449  -16.8217   11.1082 C   0  0  0  0  0  0  0  0  0  0  0  0
   -6.4971  -17.5458   11.3422 O   0  0  0  0  0  0  0  0  0  0  0  0
   -7.3835  -15.3867   11.4594 C   0  0  0  0  0  0  0  0  0  0  0  0
   -6.3093  -14.8924   12.2007 C   0  0  0  0  0  0  0  0  0  0  0  0
   -6.2585  -13.5522   12.5255 C   0  0  0  0  0  0  0  0  0  0  0  0
   -7.2689  -12.6994   12.1176 C   0  0  0  0  0  0  0  0  0  0  0  0
   -8.3357  -13.1836   11.3826 C   0  0  0  0  0  0  0  0  0  0  0  0
   -8.3968  -14.5204   11.0464 C   0  0  0  0  0  0  0  0  0  0  0  0
   -7.2064  -11.2371   12.4763 C   0  0  0  0  0  0  0  0  0  0  0  0
   -5.8007  -10.7021   12.1918 C   0  0  0  0  0  0  0  0  0  0  0  0
  -10.4403  -21.9277   12.6966 C   0  0  0  0  0  0  0  0  0  0  0  0
   -9.6884  -22.7364   13.6263 O   0  0  0  0  0  0  0  0  0  0  0  0
  -10.5493  -23.7310   14.1534 C   0  0  0  0  0  0  0  0  0  0  0  0
   -9.9204  -25.0399   14.5823 C   0  0  0  0  0  0  0  0  0  0  0  0
  -10.9659  -25.8197   15.2110 O   0  0  0  0  0  0  0  0  0  0  0  0
  -12.3971  -26.0144   14.4689 P   0  0  0  0  0  0  0  0  0  0  0  0
  -13.4581  -26.2532   15.4725 O   0  0  0  0  0  0  0  0  0  0  0  0
  -12.3211  -27.2539   13.4442 O   0  0  0  0  0  0  0  0  0  0  0  0
  -12.6998  -24.6336   13.6555 O   0  0  0  0  0  0  0  0  0  0  0  0
  -11.5713  -24.0120   13.0183 C   0  0  0  0  0  0  0  0  0  0  0  0
  -11.8484  -22.5652   12.5568 C   0  0  0  0  0  0  0  0  0  0  0  0
  -12.3121  -22.5370   11.1808 O   0  0  0  0  0  0  0  0  0  0  0  0
  -13.5291  -23.0480   10.9371 C   0  0  0  0  0  0  0  0  0  0  0  0
  -14.1648  -23.5480   11.8347 O   0  0  0  0  0  0  0  0  0  0  0  0
  -14.1034  -22.9966    9.5450 C   0  0  0  0  0  0  0  0  0  0  0  0
  -14.2664  -21.5376    9.1134 C   0  0  0  0  0  0  0  0  0  0  0  0
  -14.2223  -21.4497    7.5870 C   0  0  0  0  0  0  0  0  0  0  0  0
  1  2  1  0
  2  3  2  0
  2 10  1  0
  3  4  1  0
  3  7  1  0
  4  5  2  0
  5  6  1  0
  6  7  1  0
  6 22  1  0
  7  8  2  0
  8  9  1  0
  9 10  2  0
  9 11  1  0
 11 12  1  0
 12 13  2  0
 12 14  1  0
 14 15  2  0
 14 19  1  0
 15 16  1  0
 16 17  2  0
 17 18  1  0
 17 20  1  0
 18 19  2  0
 20 21  1  0
 22 23  1  0
 22 32  1  0
 23 24  1  0
 24 25  1  0
 24 31  1  0
 25 26  1  0
 26 27  1  0
 27 28  2  0
 27 29  1  0
 27 30  1  0
 30 31  1  0
 31 32  1  0
 32 33  1  0
 33 34  1  0
 34 35  2  0
 34 36  1  0
 36 37  1  0
 37 38  1  0
M  END
>  <Gold.Gold.Protein.RotatedWaterAtoms>  (585) 


>  <Gold.Id.Protein>  (585) 


>  <Gold.PLP.Chemscore.CHOScore>  (585) 
0.0000

>  <Gold.PLP.Chemscore.Hbond>  (585) 
1.7920

>  <Gold.PLP.Chemscore.Internal.Correction>  (585) 
1.1497

>  <Gold.PLP.Chemscore.Metal>  (585) 
0.0000

>  <Gold.PLP.Fitness>  (585) 
60.6386

>  <Gold.PLP.PLP>  (585) 
-56.3789

>  <Gold.PLP.ligand.clash>  (585) 
0.0000

>  <Gold.PLP.ligand.torsion>  (585) 
1.1330

>  <Gold.PLP.part.buried>  (585) 
-8.3011

>  <Gold.PLP.part.hbond>  (585) 
-4.0000

>  <Gold.PLP.part.metal>  (585) 
0.0000

>  <Gold.PLP.part.nonpolar>  (585) 
-43.7435

>  <Gold.PLP.part.repulsive>  (585) 
0.0063

>  <Gold.Protein.RotatedAtoms>  (585) 


>  <Gold.Protein.RotatedTorsions>  (585) 


>  <Gold.Protein.RotatedWaterAtoms>  (585) 


>  <Gold.Version>  (585) 
5.3.0

>  <PLP.Chemscore.CHOScore>  (585) 


>  <PLP.Chemscore.Hbond>  (585) 


>  <PLP.Chemscore.Internal.Correction>  (585) 


>  <PLP.Chemscore.Metal>  (585) 


>  <PLP.Fitness>  (585) 


>  <PLP.PLP>  (585) 


>  <PLP.ligand.clash>  (585) 


>  <PLP.ligand.torsion>  (585) 


>  <PLP.part.buried>  (585) 


>  <PLP.part.hbond>  (585) 


>  <PLP.part.metal>  (585) 


>  <PLP.part.nonpolar>  (585) 


>  <PLP.part.repulsive>  (585) 


>  <Version>  (585) 


$$$$
3585|Compound_2177|Compounds_3D_F|sdf|642|dock2|1
     RDKit          3D

 38 42  0  0  0  0  0  0  0  0999 V2000
   -8.4407  -19.8634    7.4081 O   0  0  0  0  0  0  0  0  0  0  0  0
   -8.8345  -19.3648    8.6047 C   0  0  0  0  0  0  0  0  0  0  0  0
   -9.4693  -20.1864    9.5483 C   0  0  0  0  0  0  0  0  0  0  0  0
   -9.8321  -21.4932    9.5831 N   0  0  0  0  0  0  0  0  0  0  0  0
  -10.4034  -21.7539   10.7226 C   0  0  0  0  0  0  0  0  0  0  0  0
  -10.4429  -20.6289   11.4927 N   0  0  0  0  0  0  0  0  0  0  0  0
   -9.8569  -19.6170   10.7743 C   0  0  0  0  0  0  0  0  0  0  0  0
   -9.6111  -18.3312   10.9963 N   0  0  0  0  0  0  0  0  0  0  0  0
   -9.0110  -17.5932   10.0777 C   0  0  0  0  0  0  0  0  0  0  0  0
   -8.6244  -18.0917    8.9100 N   0  0  0  0  0  0  0  0  0  0  0  0
   -8.7712  -16.2513   10.3461 N   0  0  0  0  0  0  0  0  0  0  0  0
   -7.8148  -15.9008   11.2279 C   0  0  0  0  0  0  0  0  0  0  0  0
   -7.1613  -16.7586   11.7888 O   0  0  0  0  0  0  0  0  0  0  0  0
   -7.5595  -14.4725   11.5127 C   0  0  0  0  0  0  0  0  0  0  0  0
   -6.3042  -14.0616   11.9636 C   0  0  0  0  0  0  0  0  0  0  0  0
   -6.0729  -12.7272   12.2280 C   0  0  0  0  0  0  0  0  0  0  0  0
   -7.0816  -11.7977   12.0464 C   0  0  0  0  0  0  0  0  0  0  0  0
   -8.3273  -12.1989   11.5994 C   0  0  0  0  0  0  0  0  0  0  0  0
   -8.5711  -13.5292   11.3264 C   0  0  0  0  0  0  0  0  0  0  0  0
   -6.8213  -10.3421   12.3372 C   0  0  0  0  0  0  0  0  0  0  0  0
   -7.9580   -9.4955   11.7592 C   0  0  0  0  0  0  0  0  0  0  0  0
  -11.0072  -20.5201   12.8405 C   0  0  0  0  0  0  0  0  0  0  0  0
  -10.1761  -21.2355   13.7793 O   0  0  0  0  0  0  0  0  0  0  0  0
  -10.9832  -22.1764   14.4660 C   0  0  0  0  0  0  0  0  0  0  0  0
  -10.3102  -23.4376   14.9653 C   0  0  0  0  0  0  0  0  0  0  0  0
  -11.2949  -24.1553   15.7473 O   0  0  0  0  0  0  0  0  0  0  0  0
  -12.7791  -24.4218   15.1446 P   0  0  0  0  0  0  0  0  0  0  0  0
  -13.7542  -24.5652   16.2485 O   0  0  0  0  0  0  0  0  0  0  0  0
  -12.7741  -25.7533   14.2395 O   0  0  0  0  0  0  0  0  0  0  0  0
  -13.1583  -23.1253   14.2308 O   0  0  0  0  0  0  0  0  0  0  0  0
  -12.0901  -22.5658   13.4487 C   0  0  0  0  0  0  0  0  0  0  0  0
  -12.4162  -21.1699   12.8757 C   0  0  0  0  0  0  0  0  0  0  0  0
  -12.9888  -21.2738   11.5450 O   0  0  0  0  0  0  0  0  0  0  0  0
  -14.1236  -21.9802   11.4232 C   0  0  0  0  0  0  0  0  0  0  0  0
  -14.7124  -22.3518   12.4105 O   0  0  0  0  0  0  0  0  0  0  0  0
  -14.6642  -22.3081   10.0554 C   0  0  0  0  0  0  0  0  0  0  0  0
  -13.9142  -21.4918    9.0006 C   0  0  0  0  0  0  0  0  0  0  0  0
  -14.3977  -20.0412    9.0401 C   0  0  0  0  0  0  0  0  0  0  0  0
  1  2  1  0
  2  3  2  0
  2 10  1  0
  3  4  1  0
  3  7  1  0
  4  5  2  0
  5  6  1  0
  6  7  1  0
  6 22  1  0
  7  8  2  0
  8  9  1  0
  9 10  2  0
  9 11  1  0
 11 12  1  0
 12 13  2  0
 12 14  1  0
 14 15  2  0
 14 19  1  0
 15 16  1  0
 16 17  2  0
 17 18  1  0
 17 20  1  0
 18 19  2  0
 20 21  1  0
 22 23  1  0
 22 32  1  0
 23 24  1  0
 24 25  1  0
 24 31  1  0
 25 26  1  0
 26 27  1  0
 27 28  2  0
 27 29  1  0
 27 30  1  0
 30 31  1  0
 31 32  1  0
 32 33  1  0
 33 34  1  0
 34 35  2  0
 34 36  1  0
 36 37  1  0
 37 38  1  0
M  END
>  <Gold.Gold.Protein.RotatedWaterAtoms>  (586) 


>  <Gold.Id.Protein>  (586) 


>  <Gold.PLP.Chemscore.CHOScore>  (586) 
0.0000

>  <Gold.PLP.Chemscore.Hbond>  (586) 
2.2112

>  <Gold.PLP.Chemscore.Internal.Correction>  (586) 
1.0261

>  <Gold.PLP.Chemscore.Metal>  (586) 
0.0000

>  <Gold.PLP.Fitness>  (586) 
69.6821

>  <Gold.PLP.PLP>  (586) 
-65.8561

>  <Gold.PLP.ligand.clash>  (586) 
0.6085

>  <Gold.PLP.ligand.torsion>  (586) 
1.6126

>  <Gold.PLP.part.buried>  (586) 
-4.5655

>  <Gold.PLP.part.hbond>  (586) 
-5.2675

>  <Gold.PLP.part.metal>  (586) 
0.0000

>  <Gold.PLP.part.nonpolar>  (586) 
-57.4269

>  <Gold.PLP.part.repulsive>  (586) 
0.2836

>  <Gold.Protein.RotatedAtoms>  (586) 


>  <Gold.Protein.RotatedTorsions>  (586) 


>  <Gold.Protein.RotatedWaterAtoms>  (586) 


>  <Gold.Version>  (586) 
5.3.0

>  <PLP.Chemscore.CHOScore>  (586) 


>  <PLP.Chemscore.Hbond>  (586) 


>  <PLP.Chemscore.Internal.Correction>  (586) 


>  <PLP.Chemscore.Metal>  (586) 


>  <PLP.Fitness>  (586) 


>  <PLP.PLP>  (586) 


>  <PLP.ligand.clash>  (586) 


>  <PLP.ligand.torsion>  (586) 


>  <PLP.part.buried>  (586) 


>  <PLP.part.hbond>  (586) 


>  <PLP.part.metal>  (586) 


>  <PLP.part.nonpolar>  (586) 


>  <PLP.part.repulsive>  (586) 


>  <Version>  (586) 


$$$$
3586|Compound_2177|Compounds_3D_F|sdf|642|dock3|1
     RDKit          3D

 38 42  0  0  0  0  0  0  0  0999 V2000
   -8.5047  -19.9332    7.4421 O   0  0  0  0  0  0  0  0  0  0  0  0
   -8.8787  -19.4681    8.6584 C   0  0  0  0  0  0  0  0  0  0  0  0
   -9.4847  -20.3194    9.5947 C   0  0  0  0  0  0  0  0  0  0  0  0
   -9.8326  -21.6307    9.6051 N   0  0  0  0  0  0  0  0  0  0  0  0
  -10.3771  -21.9252   10.7495 C   0  0  0  0  0  0  0  0  0  0  0  0
  -10.4126  -20.8197   11.5474 N   0  0  0  0  0  0  0  0  0  0  0  0
   -9.8526  -19.7842   10.8420 C   0  0  0  0  0  0  0  0  0  0  0  0
   -9.6160  -18.5014   11.0901 N   0  0  0  0  0  0  0  0  0  0  0  0
   -9.0433  -17.7348   10.1776 C   0  0  0  0  0  0  0  0  0  0  0  0
   -8.6760  -18.2005    8.9903 N   0  0  0  0  0  0  0  0  0  0  0  0
   -8.8124  -16.3971   10.4735 N   0  0  0  0  0  0  0  0  0  0  0  0
   -7.7387  -16.0448   11.2072 C   0  0  0  0  0  0  0  0  0  0  0  0
   -6.9716  -16.8972   11.6101 O   0  0  0  0  0  0  0  0  0  0  0  0
   -7.4929  -14.6210   11.5214 C   0  0  0  0  0  0  0  0  0  0  0  0
   -8.5286  -13.6915   11.4156 C   0  0  0  0  0  0  0  0  0  0  0  0
   -8.2923  -12.3642   11.7097 C   0  0  0  0  0  0  0  0  0  0  0  0
   -7.0324  -11.9545   12.1090 C   0  0  0  0  0  0  0  0  0  0  0  0
   -6.0024  -12.8711   12.2159 C   0  0  0  0  0  0  0  0  0  0  0  0
   -6.2258  -14.2022   11.9298 C   0  0  0  0  0  0  0  0  0  0  0  0
   -6.7820  -10.5031   12.4285 C   0  0  0  0  0  0  0  0  0  0  0  0
   -7.8899   -9.6466   11.8104 C   0  0  0  0  0  0  0  0  0  0  0  0
  -10.9496  -20.7498   12.9089 C   0  0  0  0  0  0  0  0  0  0  0  0
  -10.1132  -21.5115   13.8056 O   0  0  0  0  0  0  0  0  0  0  0  0
  -10.9230  -22.4631   14.4741 C   0  0  0  0  0  0  0  0  0  0  0  0
  -10.2621  -23.7520   14.9155 C   0  0  0  0  0  0  0  0  0  0  0  0
  -11.2440  -24.4811   15.6905 O   0  0  0  0  0  0  0  0  0  0  0  0
  -12.7435  -24.7019   15.1076 P   0  0  0  0  0  0  0  0  0  0  0  0
  -13.7000  -24.8688   16.2244 O   0  0  0  0  0  0  0  0  0  0  0  0
  -12.7779  -26.0002   14.1561 O   0  0  0  0  0  0  0  0  0  0  0  0
  -13.1179  -23.3678   14.2476 O   0  0  0  0  0  0  0  0  0  0  0  0
  -12.0552  -22.7981   13.4653 C   0  0  0  0  0  0  0  0  0  0  0  0
  -12.3684  -21.3776   12.9483 C   0  0  0  0  0  0  0  0  0  0  0  0
  -12.9675  -21.4248   11.6261 O   0  0  0  0  0  0  0  0  0  0  0  0
  -14.1885  -21.9738   11.5293 C   0  0  0  0  0  0  0  0  0  0  0  0
  -14.7355  -22.4070   12.5155 O   0  0  0  0  0  0  0  0  0  0  0  0
  -14.8777  -22.0481   10.1914 C   0  0  0  0  0  0  0  0  0  0  0  0
  -14.0154  -21.3560    9.1336 C   0  0  0  0  0  0  0  0  0  0  0  0
  -14.5800  -21.6513    7.7430 C   0  0  0  0  0  0  0  0  0  0  0  0
  1  2  1  0
  2  3  2  0
  2 10  1  0
  3  4  1  0
  3  7  1  0
  4  5  2  0
  5  6  1  0
  6  7  1  0
  6 22  1  0
  7  8  2  0
  8  9  1  0
  9 10  2  0
  9 11  1  0
 11 12  1  0
 12 13  2  0
 12 14  1  0
 14 15  2  0
 14 19  1  0
 15 16  1  0
 16 17  2  0
 17 18  1  0
 17 20  1  0
 18 19  2  0
 20 21  1  0
 22 23  1  0
 22 32  1  0
 23 24  1  0
 24 25  1  0
 24 31  1  0
 25 26  1  0
 26 27  1  0
 27 28  2  0
 27 29  1  0
 27 30  1  0
 30 31  1  0
 31 32  1  0
 32 33  1  0
 33 34  1  0
 34 35  2  0
 34 36  1  0
 36 37  1  0
 37 38  1  0
M  END
>  <Gold.Gold.Protein.RotatedWaterAtoms>  (587) 


>  <Gold.Id.Protein>  (587) 


>  <Gold.PLP.Chemscore.CHOScore>  (587) 
0.0000

>  <Gold.PLP.Chemscore.Hbond>  (587) 
2.1608

>  <Gold.PLP.Chemscore.Internal.Correction>  (587) 
0.9331

>  <Gold.PLP.Chemscore.Metal>  (587) 
0.0000

>  <Gold.PLP.Fitness>  (587) 
69.3093

>  <Gold.PLP.PLP>  (587) 
-64.6408

>  <Gold.PLP.ligand.clash>  (587) 
0.0370

>  <Gold.PLP.ligand.torsion>  (587) 
1.3550

>  <Gold.PLP.part.buried>  (587) 
-5.6401

>  <Gold.PLP.part.hbond>  (587) 
-5.2845

>  <Gold.PLP.part.metal>  (587) 
0.0000

>  <Gold.PLP.part.nonpolar>  (587) 
-55.5711

>  <Gold.PLP.part.repulsive>  (587) 
0.2356

>  <Gold.Protein.RotatedAtoms>  (587) 


>  <Gold.Protein.RotatedTorsions>  (587) 


>  <Gold.Protein.RotatedWaterAtoms>  (587) 


>  <Gold.Version>  (587) 
5.3.0

>  <PLP.Chemscore.CHOScore>  (587) 


>  <PLP.Chemscore.Hbond>  (587) 


>  <PLP.Chemscore.Internal.Correction>  (587) 


>  <PLP.Chemscore.Metal>  (587) 


>  <PLP.Fitness>  (587) 


>  <PLP.PLP>  (587) 


>  <PLP.ligand.clash>  (587) 


>  <PLP.ligand.torsion>  (587) 


>  <PLP.part.buried>  (587) 


>  <PLP.part.hbond>  (587) 


>  <PLP.part.metal>  (587) 


>  <PLP.part.nonpolar>  (587) 


>  <PLP.part.repulsive>  (587) 


>  <Version>  (587) 


$$$$
3587|Compound_2179|Compounds_3D_F|sdf|643|dock1|1
     RDKit          3D

 22 24  0  0  0  0  0  0  0  0999 V2000
   -8.7466  -17.6852   10.4592 N   0  0  0  0  0  0  0  0  0  0  0  0
   -8.8005  -16.7074   11.3856 C   0  0  0  0  0  0  0  0  0  0  0  0
   -9.8628  -16.4134   11.8974 O   0  0  0  0  0  0  0  0  0  0  0  0
   -7.5706  -15.9954   11.7767 C   0  0  0  0  0  0  0  0  0  0  0  0
   -6.4214  -16.6978   12.1157 C   0  0  0  0  0  0  0  0  0  0  0  0
   -5.2646  -16.0239   12.4830 C   0  0  0  0  0  0  0  0  0  0  0  0
   -5.2074  -14.6649   12.5271 C   0  0  0  0  0  0  0  0  0  0  0  0
   -6.3319  -13.8900   12.1960 C   0  0  0  0  0  0  0  0  0  0  0  0
   -6.2898  -12.4857   12.2354 C   0  0  0  0  0  0  0  0  0  0  0  0
   -7.3999  -11.7687   11.9084 C   0  0  0  0  0  0  0  0  0  0  0  0
   -8.5803  -12.4059   11.5344 C   0  0  0  0  0  0  0  0  0  0  0  0
   -8.6575  -13.7663   11.4848 C   0  0  0  0  0  0  0  0  0  0  0  0
   -7.5325  -14.5349   11.8094 C   0  0  0  0  0  0  0  0  0  0  0  0
   -9.9041  -18.3518   10.0874 C   0  0  0  0  0  0  0  0  0  0  0  0
   -9.9720  -19.5205    9.5012 N   0  0  0  0  0  0  0  0  0  0  0  0
  -11.2066  -19.8283    9.3072 N   0  0  0  0  0  0  0  0  0  0  0  0
  -11.9683  -18.8749    9.7594 C   0  0  0  0  0  0  0  0  0  0  0  0
  -11.1657  -17.9207   10.2682 O   0  0  0  0  0  0  0  0  0  0  0  0
  -13.4744  -18.8458    9.7246 C   0  0  0  0  0  0  0  0  0  0  0  0
  -13.9464  -19.9712    9.0406 F   0  0  0  0  0  0  0  0  0  0  0  0
  -13.9712  -18.8529   11.0317 F   0  0  0  0  0  0  0  0  0  0  0  0
  -13.9041  -17.6871    9.0680 F   0  0  0  0  0  0  0  0  0  0  0  0
  1  2  1  0
  1 14  1  0
  2  3  2  0
  2  4  1  0
  4  5  2  0
  4 13  1  0
  5  6  1  0
  6  7  2  0
  7  8  1  0
  8  9  1  0
  8 13  2  0
  9 10  2  0
 10 11  1  0
 11 12  2  0
 12 13  1  0
 14 15  2  0
 14 18  1  0
 15 16  1  0
 16 17  2  0
 17 18  1  0
 17 19  1  0
 19 20  1  0
 19 21  1  0
 19 22  1  0
M  END
>  <Gold.Gold.Protein.RotatedWaterAtoms>  (588) 


>  <Gold.Id.Protein>  (588) 


>  <Gold.PLP.Chemscore.CHOScore>  (588) 
0.0000

>  <Gold.PLP.Chemscore.Hbond>  (588) 
1.0000

>  <Gold.PLP.Chemscore.Internal.Correction>  (588) 
0.8113

>  <Gold.PLP.Chemscore.Metal>  (588) 
0.0000

>  <Gold.PLP.Fitness>  (588) 
66.5621

>  <Gold.PLP.PLP>  (588) 
-64.7403

>  <Gold.PLP.ligand.clash>  (588) 
0.0000

>  <Gold.PLP.ligand.torsion>  (588) 
0.9947

>  <Gold.PLP.part.buried>  (588) 
-11.0431

>  <Gold.PLP.part.hbond>  (588) 
-1.9075

>  <Gold.PLP.part.metal>  (588) 
0.0000

>  <Gold.PLP.part.nonpolar>  (588) 
-52.4594

>  <Gold.PLP.part.repulsive>  (588) 
0.0743

>  <Gold.Protein.RotatedAtoms>  (588) 


>  <Gold.Protein.RotatedTorsions>  (588) 


>  <Gold.Protein.RotatedWaterAtoms>  (588) 


>  <Gold.Version>  (588) 
5.3.0

>  <PLP.Chemscore.CHOScore>  (588) 


>  <PLP.Chemscore.Hbond>  (588) 


>  <PLP.Chemscore.Internal.Correction>  (588) 


>  <PLP.Chemscore.Metal>  (588) 


>  <PLP.Fitness>  (588) 


>  <PLP.PLP>  (588) 


>  <PLP.ligand.clash>  (588) 


>  <PLP.ligand.torsion>  (588) 


>  <PLP.part.buried>  (588) 


>  <PLP.part.hbond>  (588) 


>  <PLP.part.metal>  (588) 


>  <PLP.part.nonpolar>  (588) 


>  <PLP.part.repulsive>  (588) 


>  <Version>  (588) 


$$$$
3588|Compound_2179|Compounds_3D_F|sdf|643|dock2|1
     RDKit          3D

 22 24  0  0  0  0  0  0  0  0999 V2000
   -8.6937  -17.7072   10.4208 N   0  0  0  0  0  0  0  0  0  0  0  0
   -8.7627  -16.5889   11.1703 C   0  0  0  0  0  0  0  0  0  0  0  0
   -9.8441  -16.1050   11.4412 O   0  0  0  0  0  0  0  0  0  0  0  0
   -7.5263  -15.9538   11.6604 C   0  0  0  0  0  0  0  0  0  0  0  0
   -6.4222  -16.7226   12.0052 C   0  0  0  0  0  0  0  0  0  0  0  0
   -5.2589  -16.1210   12.4659 C   0  0  0  0  0  0  0  0  0  0  0  0
   -5.1518  -14.7708   12.5987 C   0  0  0  0  0  0  0  0  0  0  0  0
   -6.2288  -13.9313   12.2676 C   0  0  0  0  0  0  0  0  0  0  0  0
   -6.1347  -12.5350   12.3980 C   0  0  0  0  0  0  0  0  0  0  0  0
   -7.1998  -11.7539   12.0680 C   0  0  0  0  0  0  0  0  0  0  0  0
   -8.3848  -12.3176   11.6018 C   0  0  0  0  0  0  0  0  0  0  0  0
   -8.5117  -13.6679   11.4625 C   0  0  0  0  0  0  0  0  0  0  0  0
   -7.4337  -14.5009   11.7875 C   0  0  0  0  0  0  0  0  0  0  0  0
   -9.8564  -18.3022    9.9554 C   0  0  0  0  0  0  0  0  0  0  0  0
   -9.9330  -19.2991    9.1102 N   0  0  0  0  0  0  0  0  0  0  0  0
  -11.1701  -19.5906    8.9068 N   0  0  0  0  0  0  0  0  0  0  0  0
  -11.9247  -18.7968    9.6098 C   0  0  0  0  0  0  0  0  0  0  0  0
  -11.1145  -17.9666   10.2938 O   0  0  0  0  0  0  0  0  0  0  0  0
  -13.4308  -18.8078    9.6545 C   0  0  0  0  0  0  0  0  0  0  0  0
  -13.8563  -19.0208   10.9701 F   0  0  0  0  0  0  0  0  0  0  0  0
  -13.9197  -17.5791    9.2000 F   0  0  0  0  0  0  0  0  0  0  0  0
  -13.9148  -19.8347    8.8361 F   0  0  0  0  0  0  0  0  0  0  0  0
  1  2  1  0
  1 14  1  0
  2  3  2  0
  2  4  1  0
  4  5  2  0
  4 13  1  0
  5  6  1  0
  6  7  2  0
  7  8  1  0
  8  9  1  0
  8 13  2  0
  9 10  2  0
 10 11  1  0
 11 12  2  0
 12 13  1  0
 14 15  2  0
 14 18  1  0
 15 16  1  0
 16 17  2  0
 17 18  1  0
 17 19  1  0
 19 20  1  0
 19 21  1  0
 19 22  1  0
M  END
>  <Gold.Gold.Protein.RotatedWaterAtoms>  (589) 


>  <Gold.Id.Protein>  (589) 


>  <Gold.PLP.Chemscore.CHOScore>  (589) 
0.0000

>  <Gold.PLP.Chemscore.Hbond>  (589) 
1.0000

>  <Gold.PLP.Chemscore.Internal.Correction>  (589) 
0.8113

>  <Gold.PLP.Chemscore.Metal>  (589) 
0.0000

>  <Gold.PLP.Fitness>  (589) 
66.8039

>  <Gold.PLP.PLP>  (589) 
-63.9804

>  <Gold.PLP.ligand.clash>  (589) 
0.0000

>  <Gold.PLP.ligand.torsion>  (589) 
0.4939

>  <Gold.PLP.part.buried>  (589) 
-9.4835

>  <Gold.PLP.part.hbond>  (589) 
-2.6578

>  <Gold.PLP.part.metal>  (589) 
0.0000

>  <Gold.PLP.part.nonpolar>  (589) 
-52.7793

>  <Gold.PLP.part.repulsive>  (589) 
0.0805

>  <Gold.Protein.RotatedAtoms>  (589) 


>  <Gold.Protein.RotatedTorsions>  (589) 


>  <Gold.Protein.RotatedWaterAtoms>  (589) 


>  <Gold.Version>  (589) 
5.3.0

>  <PLP.Chemscore.CHOScore>  (589) 


>  <PLP.Chemscore.Hbond>  (589) 


>  <PLP.Chemscore.Internal.Correction>  (589) 


>  <PLP.Chemscore.Metal>  (589) 


>  <PLP.Fitness>  (589) 


>  <PLP.PLP>  (589) 


>  <PLP.ligand.clash>  (589) 


>  <PLP.ligand.torsion>  (589) 


>  <PLP.part.buried>  (589) 


>  <PLP.part.hbond>  (589) 


>  <PLP.part.metal>  (589) 


>  <PLP.part.nonpolar>  (589) 


>  <PLP.part.repulsive>  (589) 


>  <Version>  (589) 


$$$$
3589|Compound_2179|Compounds_3D_F|sdf|643|dock3|1
     RDKit          3D

 22 24  0  0  0  0  0  0  0  0999 V2000
   -9.4718  -17.6770   11.3979 N   0  0  0  0  0  0  0  0  0  0  0  0
   -9.2186  -16.5050   12.0140 C   0  0  0  0  0  0  0  0  0  0  0  0
  -10.1309  -15.8622   12.4952 O   0  0  0  0  0  0  0  0  0  0  0  0
   -7.8353  -16.0040   12.1031 C   0  0  0  0  0  0  0  0  0  0  0  0
   -6.7652  -16.8856   12.1843 C   0  0  0  0  0  0  0  0  0  0  0  0
   -5.4636  -16.4103   12.2675 C   0  0  0  0  0  0  0  0  0  0  0  0
   -5.1835  -15.0785   12.2740 C   0  0  0  0  0  0  0  0  0  0  0  0
   -6.2167  -14.1294   12.1937 C   0  0  0  0  0  0  0  0  0  0  0  0
   -5.9449  -12.7504   12.1983 C   0  0  0  0  0  0  0  0  0  0  0  0
   -6.9724  -11.8608   12.1198 C   0  0  0  0  0  0  0  0  0  0  0  0
   -8.2925  -12.2961   12.0347 C   0  0  0  0  0  0  0  0  0  0  0  0
   -8.5932  -13.6259   12.0274 C   0  0  0  0  0  0  0  0  0  0  0  0
   -7.5602  -14.5688   12.1011 C   0  0  0  0  0  0  0  0  0  0  0  0
  -10.7735  -18.1462   11.3094 C   0  0  0  0  0  0  0  0  0  0  0  0
  -11.6859  -18.0842   12.2464 N   0  0  0  0  0  0  0  0  0  0  0  0
  -12.7758  -18.6158   11.8150 N   0  0  0  0  0  0  0  0  0  0  0  0
  -12.6021  -19.0338   10.5948 C   0  0  0  0  0  0  0  0  0  0  0  0
  -11.3352  -18.7433   10.2426 O   0  0  0  0  0  0  0  0  0  0  0  0
  -13.6323  -19.7144    9.7313 C   0  0  0  0  0  0  0  0  0  0  0  0
  -14.8109  -19.8914   10.4640 F   0  0  0  0  0  0  0  0  0  0  0  0
  -13.8961  -18.9234    8.6089 F   0  0  0  0  0  0  0  0  0  0  0  0
  -13.1473  -20.9612    9.3204 F   0  0  0  0  0  0  0  0  0  0  0  0
  1  2  1  0
  1 14  1  0
  2  3  2  0
  2  4  1  0
  4  5  2  0
  4 13  1  0
  5  6  1  0
  6  7  2  0
  7  8  1  0
  8  9  1  0
  8 13  2  0
  9 10  2  0
 10 11  1  0
 11 12  2  0
 12 13  1  0
 14 15  2  0
 14 18  1  0
 15 16  1  0
 16 17  2  0
 17 18  1  0
 17 19  1  0
 19 20  1  0
 19 21  1  0
 19 22  1  0
M  END
>  <Gold.Gold.Protein.RotatedWaterAtoms>  (590) 


>  <Gold.Id.Protein>  (590) 


>  <Gold.PLP.Chemscore.CHOScore>  (590) 
0.0000

>  <Gold.PLP.Chemscore.Hbond>  (590) 
2.0000

>  <Gold.PLP.Chemscore.Internal.Correction>  (590) 
0.8113

>  <Gold.PLP.Chemscore.Metal>  (590) 
0.0000

>  <Gold.PLP.Fitness>  (590) 
65.2223

>  <Gold.PLP.PLP>  (590) 
-59.9080

>  <Gold.PLP.ligand.clash>  (590) 
0.0000

>  <Gold.PLP.ligand.torsion>  (590) 
0.7485

>  <Gold.PLP.part.buried>  (590) 
-7.4072

>  <Gold.PLP.part.hbond>  (590) 
-2.1612

>  <Gold.PLP.part.metal>  (590) 
0.0000

>  <Gold.PLP.part.nonpolar>  (590) 
-50.8950

>  <Gold.PLP.part.repulsive>  (590) 
0.6861

>  <Gold.Protein.RotatedAtoms>  (590) 


>  <Gold.Protein.RotatedTorsions>  (590) 


>  <Gold.Protein.RotatedWaterAtoms>  (590) 


>  <Gold.Version>  (590) 
5.3.0

>  <PLP.Chemscore.CHOScore>  (590) 


>  <PLP.Chemscore.Hbond>  (590) 


>  <PLP.Chemscore.Internal.Correction>  (590) 


>  <PLP.Chemscore.Metal>  (590) 


>  <PLP.Fitness>  (590) 


>  <PLP.PLP>  (590) 


>  <PLP.ligand.clash>  (590) 


>  <PLP.ligand.torsion>  (590) 


>  <PLP.part.buried>  (590) 


>  <PLP.part.hbond>  (590) 


>  <PLP.part.metal>  (590) 


>  <PLP.part.nonpolar>  (590) 


>  <PLP.part.repulsive>  (590) 


>  <Version>  (590) 


$$$$
3590|Compound_2183|Compounds_3D_F|sdf|644|dock1|1
     RDKit          3D

 25 28  0  0  0  0  0  0  0  0999 V2000
   -9.3454  -17.7162   12.0288 N   0  0  0  0  0  0  0  0  0  0  0  0
   -8.6694  -16.7622   11.3586 C   0  0  0  0  0  0  0  0  0  0  0  0
   -9.2354  -16.0977   10.5118 O   0  0  0  0  0  0  0  0  0  0  0  0
   -7.2421  -16.5252   11.6514 C   0  0  0  0  0  0  0  0  0  0  0  0
   -6.7648  -15.2117   11.8281 C   0  0  0  0  0  0  0  0  0  0  0  0
   -7.4606  -13.9049   11.7766 C   0  0  0  0  0  0  0  0  0  0  0  0
   -6.5465  -12.8824   12.0196 C   0  0  0  0  0  0  0  0  0  0  0  0
   -6.9586  -11.5669   12.0246 C   0  0  0  0  0  0  0  0  0  0  0  0
   -8.2857  -11.2566   11.7861 C   0  0  0  0  0  0  0  0  0  0  0  0
   -9.2019  -12.2640   11.5440 C   0  0  0  0  0  0  0  0  0  0  0  0
   -8.7992  -13.5833   11.5365 C   0  0  0  0  0  0  0  0  0  0  0  0
   -5.1979  -13.5227   12.2411 C   0  0  0  0  0  0  0  0  0  0  0  0
   -5.4159  -15.0104   12.1035 C   0  0  0  0  0  0  0  0  0  0  0  0
   -4.5570  -16.0841   12.2016 C   0  0  0  0  0  0  0  0  0  0  0  0
   -5.0265  -17.3758   12.0277 C   0  0  0  0  0  0  0  0  0  0  0  0
   -6.3607  -17.6011   11.7596 C   0  0  0  0  0  0  0  0  0  0  0  0
  -10.6838  -17.9435   11.7500 C   0  0  0  0  0  0  0  0  0  0  0  0
  -11.7021  -17.5912   12.4950 N   0  0  0  0  0  0  0  0  0  0  0  0
  -12.7939  -17.9648   11.9260 N   0  0  0  0  0  0  0  0  0  0  0  0
  -12.5174  -18.5650   10.8047 C   0  0  0  0  0  0  0  0  0  0  0  0
  -11.1787  -18.5632   10.6626 O   0  0  0  0  0  0  0  0  0  0  0  0
  -13.5143  -19.1524    9.8396 C   0  0  0  0  0  0  0  0  0  0  0  0
  -12.8437  -19.9360    8.8941 F   0  0  0  0  0  0  0  0  0  0  0  0
  -14.4284  -19.9483   10.5402 F   0  0  0  0  0  0  0  0  0  0  0  0
  -14.1983  -18.1200    9.1886 F   0  0  0  0  0  0  0  0  0  0  0  0
  1  2  1  0
  1 17  1  0
  2  3  2  0
  2  4  1  0
  4  5  2  0
  4 16  1  0
  5  6  1  0
  5 13  1  0
  6  7  1  0
  6 11  2  0
  7  8  2  0
  7 12  1  0
  8  9  1  0
  9 10  2  0
 10 11  1  0
 12 13  1  0
 13 14  2  0
 14 15  1  0
 15 16  2  0
 17 18  2  0
 17 21  1  0
 18 19  1  0
 19 20  2  0
 20 21  1  0
 20 22  1  0
 22 23  1  0
 22 24  1  0
 22 25  1  0
M  END
>  <Gold.Gold.Protein.RotatedWaterAtoms>  (591) 


>  <Gold.Id.Protein>  (591) 


>  <Gold.PLP.Chemscore.CHOScore>  (591) 
0.0000

>  <Gold.PLP.Chemscore.Hbond>  (591) 
1.0520

>  <Gold.PLP.Chemscore.Internal.Correction>  (591) 
1.5904

>  <Gold.PLP.Chemscore.Metal>  (591) 
0.0000

>  <Gold.PLP.Fitness>  (591) 
67.3812

>  <Gold.PLP.PLP>  (591) 
-66.3283

>  <Gold.PLP.ligand.clash>  (591) 
0.0014

>  <Gold.PLP.ligand.torsion>  (591) 
1.8461

>  <Gold.PLP.part.buried>  (591) 
-5.8831

>  <Gold.PLP.part.hbond>  (591) 
-3.9041

>  <Gold.PLP.part.metal>  (591) 
0.0000

>  <Gold.PLP.part.nonpolar>  (591) 
-56.3117

>  <Gold.PLP.part.repulsive>  (591) 
0.3100

>  <Gold.Protein.RotatedAtoms>  (591) 


>  <Gold.Protein.RotatedTorsions>  (591) 


>  <Gold.Protein.RotatedWaterAtoms>  (591) 


>  <Gold.Version>  (591) 
5.3.0

>  <PLP.Chemscore.CHOScore>  (591) 


>  <PLP.Chemscore.Hbond>  (591) 


>  <PLP.Chemscore.Internal.Correction>  (591) 


>  <PLP.Chemscore.Metal>  (591) 


>  <PLP.Fitness>  (591) 


>  <PLP.PLP>  (591) 


>  <PLP.ligand.clash>  (591) 


>  <PLP.ligand.torsion>  (591) 


>  <PLP.part.buried>  (591) 


>  <PLP.part.hbond>  (591) 


>  <PLP.part.metal>  (591) 


>  <PLP.part.nonpolar>  (591) 


>  <PLP.part.repulsive>  (591) 


>  <Version>  (591) 


$$$$
3591|Compound_2183|Compounds_3D_F|sdf|644|dock2|1
     RDKit          3D

 25 28  0  0  0  0  0  0  0  0999 V2000
   -9.2712  -18.0127   11.8374 N   0  0  0  0  0  0  0  0  0  0  0  0
   -8.3929  -18.0821   10.8176 C   0  0  0  0  0  0  0  0  0  0  0  0
   -8.7751  -18.3977    9.7070 O   0  0  0  0  0  0  0  0  0  0  0  0
   -6.9674  -17.7765   11.0491 C   0  0  0  0  0  0  0  0  0  0  0  0
   -6.5816  -16.4970   11.4946 C   0  0  0  0  0  0  0  0  0  0  0  0
   -7.3811  -15.2895   11.8061 C   0  0  0  0  0  0  0  0  0  0  0  0
   -6.5321  -14.2632   12.2139 C   0  0  0  0  0  0  0  0  0  0  0  0
   -7.0454  -13.0317   12.5609 C   0  0  0  0  0  0  0  0  0  0  0  0
   -8.4099  -12.8097   12.5037 C   0  0  0  0  0  0  0  0  0  0  0  0
   -9.2620  -13.8217   12.1005 C   0  0  0  0  0  0  0  0  0  0  0  0
   -8.7579  -15.0573   11.7510 C   0  0  0  0  0  0  0  0  0  0  0  0
   -5.1217  -14.7988   12.1750 C   0  0  0  0  0  0  0  0  0  0  0  0
   -5.2326  -16.2299   11.7067 C   0  0  0  0  0  0  0  0  0  0  0  0
   -4.2854  -17.2060   11.4830 C   0  0  0  0  0  0  0  0  0  0  0  0
   -4.6650  -18.4642   11.0448 C   0  0  0  0  0  0  0  0  0  0  0  0
   -5.9967  -18.7548   10.8330 C   0  0  0  0  0  0  0  0  0  0  0  0
  -10.6086  -18.3056   11.6222 C   0  0  0  0  0  0  0  0  0  0  0  0
  -11.5291  -18.4500   12.5430 N   0  0  0  0  0  0  0  0  0  0  0  0
  -12.6547  -18.7175   11.9801 N   0  0  0  0  0  0  0  0  0  0  0  0
  -12.4979  -18.7537   10.6885 C   0  0  0  0  0  0  0  0  0  0  0  0
  -11.2034  -18.4903   10.4291 O   0  0  0  0  0  0  0  0  0  0  0  0
  -13.5707  -19.0360    9.6688 C   0  0  0  0  0  0  0  0  0  0  0  0
  -14.7515  -19.4050   10.3226 F   0  0  0  0  0  0  0  0  0  0  0  0
  -13.8014  -17.8863    8.9041 F   0  0  0  0  0  0  0  0  0  0  0  0
  -13.1567  -20.0776    8.8314 F   0  0  0  0  0  0  0  0  0  0  0  0
  1  2  1  0
  1 17  1  0
  2  3  2  0
  2  4  1  0
  4  5  2  0
  4 16  1  0
  5  6  1  0
  5 13  1  0
  6  7  1  0
  6 11  2  0
  7  8  2  0
  7 12  1  0
  8  9  1  0
  9 10  2  0
 10 11  1  0
 12 13  1  0
 13 14  2  0
 14 15  1  0
 15 16  2  0
 17 18  2  0
 17 21  1  0
 18 19  1  0
 19 20  2  0
 20 21  1  0
 20 22  1  0
 22 23  1  0
 22 24  1  0
 22 25  1  0
M  END
>  <Gold.Gold.Protein.RotatedWaterAtoms>  (592) 


>  <Gold.Id.Protein>  (592) 


>  <Gold.PLP.Chemscore.CHOScore>  (592) 
0.0000

>  <Gold.PLP.Chemscore.Hbond>  (592) 
1.0000

>  <Gold.PLP.Chemscore.Internal.Correction>  (592) 
1.5820

>  <Gold.PLP.Chemscore.Metal>  (592) 
0.0000

>  <Gold.PLP.Fitness>  (592) 
62.4741

>  <Gold.PLP.PLP>  (592) 
-60.5028

>  <Gold.PLP.ligand.clash>  (592) 
0.0000

>  <Gold.PLP.ligand.torsion>  (592) 
1.3053

>  <Gold.PLP.part.buried>  (592) 
-6.9933

>  <Gold.PLP.part.hbond>  (592) 
-1.0000

>  <Gold.PLP.part.metal>  (592) 
0.0000

>  <Gold.PLP.part.nonpolar>  (592) 
-52.9277

>  <Gold.PLP.part.repulsive>  (592) 
0.1701

>  <Gold.Protein.RotatedAtoms>  (592) 


>  <Gold.Protein.RotatedTorsions>  (592) 


>  <Gold.Protein.RotatedWaterAtoms>  (592) 


>  <Gold.Version>  (592) 
5.3.0

>  <PLP.Chemscore.CHOScore>  (592) 


>  <PLP.Chemscore.Hbond>  (592) 


>  <PLP.Chemscore.Internal.Correction>  (592) 


>  <PLP.Chemscore.Metal>  (592) 


>  <PLP.Fitness>  (592) 


>  <PLP.PLP>  (592) 


>  <PLP.ligand.clash>  (592) 


>  <PLP.ligand.torsion>  (592) 


>  <PLP.part.buried>  (592) 


>  <PLP.part.hbond>  (592) 


>  <PLP.part.metal>  (592) 


>  <PLP.part.nonpolar>  (592) 


>  <PLP.part.repulsive>  (592) 


>  <Version>  (592) 


$$$$
3592|Compound_2183|Compounds_3D_F|sdf|644|dock3|1
     RDKit          3D

 25 28  0  0  0  0  0  0  0  0999 V2000
   -9.2974  -17.8990   11.8550 N   0  0  0  0  0  0  0  0  0  0  0  0
   -8.4267  -17.9375   10.8271 C   0  0  0  0  0  0  0  0  0  0  0  0
   -8.8134  -18.2390    9.7142 O   0  0  0  0  0  0  0  0  0  0  0  0
   -7.0039  -17.6152   11.0525 C   0  0  0  0  0  0  0  0  0  0  0  0
   -6.6322  -16.3355   11.5094 C   0  0  0  0  0  0  0  0  0  0  0  0
   -7.4457  -15.1424   11.8395 C   0  0  0  0  0  0  0  0  0  0  0  0
   -6.6079  -14.1092   12.2529 C   0  0  0  0  0  0  0  0  0  0  0  0
   -7.1353  -12.8887   12.6167 C   0  0  0  0  0  0  0  0  0  0  0  0
   -8.5030  -12.6844   12.5710 C   0  0  0  0  0  0  0  0  0  0  0  0
   -9.3441  -13.7035   12.1624 C   0  0  0  0  0  0  0  0  0  0  0  0
   -8.8259  -14.9282   11.7961 C   0  0  0  0  0  0  0  0  0  0  0  0
   -5.1907  -14.6253   12.1987 C   0  0  0  0  0  0  0  0  0  0  0  0
   -5.2856  -16.0526   11.7155 C   0  0  0  0  0  0  0  0  0  0  0  0
   -4.3269  -17.0133   11.4747 C   0  0  0  0  0  0  0  0  0  0  0  0
   -4.6925  -18.2717   11.0254 C   0  0  0  0  0  0  0  0  0  0  0  0
   -6.0216  -18.5780   10.8192 C   0  0  0  0  0  0  0  0  0  0  0  0
  -10.6321  -18.2075   11.6454 C   0  0  0  0  0  0  0  0  0  0  0  0
  -11.5226  -18.4682   12.5702 N   0  0  0  0  0  0  0  0  0  0  0  0
  -12.6560  -18.7112   12.0119 N   0  0  0  0  0  0  0  0  0  0  0  0
  -12.5342  -18.6157   10.7196 C   0  0  0  0  0  0  0  0  0  0  0  0
  -11.2548  -18.2910   10.4552 O   0  0  0  0  0  0  0  0  0  0  0  0
  -13.6273  -18.8270    9.7041 C   0  0  0  0  0  0  0  0  0  0  0  0
  -13.8308  -17.6449    8.9837 F   0  0  0  0  0  0  0  0  0  0  0  0
  -13.2550  -19.8504    8.8245 F   0  0  0  0  0  0  0  0  0  0  0  0
  -14.8111  -19.1831   10.3595 F   0  0  0  0  0  0  0  0  0  0  0  0
  1  2  1  0
  1 17  1  0
  2  3  2  0
  2  4  1  0
  4  5  2  0
  4 16  1  0
  5  6  1  0
  5 13  1  0
  6  7  1  0
  6 11  2  0
  7  8  2  0
  7 12  1  0
  8  9  1  0
  9 10  2  0
 10 11  1  0
 12 13  1  0
 13 14  2  0
 14 15  1  0
 15 16  2  0
 17 18  2  0
 17 21  1  0
 18 19  1  0
 19 20  2  0
 20 21  1  0
 20 22  1  0
 22 23  1  0
 22 24  1  0
 22 25  1  0
M  END
>  <Gold.Gold.Protein.RotatedWaterAtoms>  (593) 


>  <Gold.Id.Protein>  (593) 


>  <Gold.PLP.Chemscore.CHOScore>  (593) 
0.0000

>  <Gold.PLP.Chemscore.Hbond>  (593) 
1.1433

>  <Gold.PLP.Chemscore.Internal.Correction>  (593) 
1.5809

>  <Gold.PLP.Chemscore.Metal>  (593) 
0.0000

>  <Gold.PLP.Fitness>  (593) 
62.9172

>  <Gold.PLP.PLP>  (593) 
-60.3471

>  <Gold.PLP.ligand.clash>  (593) 
0.0000

>  <Gold.PLP.ligand.torsion>  (593) 
1.2204

>  <Gold.PLP.part.buried>  (593) 
-6.6509

>  <Gold.PLP.part.hbond>  (593) 
-1.6429

>  <Gold.PLP.part.metal>  (593) 
0.0000

>  <Gold.PLP.part.nonpolar>  (593) 
-51.8602

>  <Gold.PLP.part.repulsive>  (593) 
0.1781

>  <Gold.Protein.RotatedAtoms>  (593) 


>  <Gold.Protein.RotatedTorsions>  (593) 


>  <Gold.Protein.RotatedWaterAtoms>  (593) 


>  <Gold.Version>  (593) 
5.3.0

>  <PLP.Chemscore.CHOScore>  (593) 


>  <PLP.Chemscore.Hbond>  (593) 


>  <PLP.Chemscore.Internal.Correction>  (593) 


>  <PLP.Chemscore.Metal>  (593) 


>  <PLP.Fitness>  (593) 


>  <PLP.PLP>  (593) 


>  <PLP.ligand.clash>  (593) 


>  <PLP.ligand.torsion>  (593) 


>  <PLP.part.buried>  (593) 


>  <PLP.part.hbond>  (593) 


>  <PLP.part.metal>  (593) 


>  <PLP.part.nonpolar>  (593) 


>  <PLP.part.repulsive>  (593) 


>  <Version>  (593) 


$$$$
3593|Compound_2186|Compounds_3D_F|sdf|645|dock1|1
     RDKit          3D

 30 33  0  0  0  0  0  0  0  0999 V2000
   -4.8949  -13.7961   12.2431 N   0  0  0  0  0  0  0  0  0  0  0  0
   -5.7551  -14.8257   12.1113 C   0  0  0  0  0  0  0  0  0  0  0  0
   -5.3321  -15.9633   12.0127 O   0  0  0  0  0  0  0  0  0  0  0  0
   -7.1522  -14.5833   12.0863 C   0  0  0  0  0  0  0  0  0  0  0  0
   -8.1564  -15.5105   11.8535 C   0  0  0  0  0  0  0  0  0  0  0  0
   -9.3238  -14.8610   11.9197 N   0  0  0  0  0  0  0  0  0  0  0  0
   -9.1142  -13.5970   12.1779 C   0  0  0  0  0  0  0  0  0  0  0  0
   -7.7940  -13.3715   12.2959 N   0  0  0  0  0  0  0  0  0  0  0  0
   -7.9821  -16.8664   11.5971 N   0  0  0  0  0  0  0  0  0  0  0  0
   -9.0354  -17.6247   11.2331 C   0  0  0  0  0  0  0  0  0  0  0  0
  -10.1379  -17.1225   11.1281 O   0  0  0  0  0  0  0  0  0  0  0  0
   -8.8511  -19.0593   10.9621 C   0  0  0  0  0  0  0  0  0  0  0  0
   -9.8587  -19.9815   11.3033 C   0  0  0  0  0  0  0  0  0  0  0  0
   -9.6685  -21.3375   11.0399 C   0  0  0  0  0  0  0  0  0  0  0  0
   -8.5015  -21.7678   10.4501 C   0  0  0  0  0  0  0  0  0  0  0  0
   -7.5066  -20.8609   10.1127 C   0  0  0  0  0  0  0  0  0  0  0  0
   -7.6749  -19.5166   10.3588 C   0  0  0  0  0  0  0  0  0  0  0  0
  -11.3955  -19.4086   12.0797 P   0  0  0  0  0  0  0  0  0  0  0  0
  -12.6989  -19.5208   10.8239 C   0  0  0  0  0  0  0  0  0  0  0  0
  -12.8996  -18.4724    9.9297 C   0  0  0  0  0  0  0  0  0  0  0  0
  -13.8930  -18.5631    8.9764 C   0  0  0  0  0  0  0  0  0  0  0  0
  -14.6896  -19.6927    8.9075 C   0  0  0  0  0  0  0  0  0  0  0  0
  -14.4939  -20.7367    9.7941 C   0  0  0  0  0  0  0  0  0  0  0  0
  -13.4992  -20.6582   10.7473 C   0  0  0  0  0  0  0  0  0  0  0  0
  -11.8082  -20.6022   13.3814 C   0  0  0  0  0  0  0  0  0  0  0  0
  -10.8564  -21.5231   13.8127 C   0  0  0  0  0  0  0  0  0  0  0  0
  -11.1755  -22.4285   14.8038 C   0  0  0  0  0  0  0  0  0  0  0  0
  -12.4384  -22.4233   15.3694 C   0  0  0  0  0  0  0  0  0  0  0  0
  -13.3884  -21.5112   14.9437 C   0  0  0  0  0  0  0  0  0  0  0  0
  -13.0766  -20.5978   13.9575 C   0  0  0  0  0  0  0  0  0  0  0  0
  1  2  1  0
  2  3  2  0
  2  4  1  0
  4  5  2  0
  4  8  1  0
  5  6  1  0
  5  9  1  0
  6  7  2  0
  7  8  1  0
  9 10  1  0
 10 11  2  0
 10 12  1  0
 12 13  1  0
 12 17  2  0
 13 14  2  0
 13 18  1  0
 14 15  1  0
 15 16  2  0
 16 17  1  0
 18 19  1  0
 18 25  1  0
 19 20  2  0
 19 24  1  0
 20 21  1  0
 21 22  2  0
 22 23  1  0
 23 24  2  0
 25 26  2  0
 25 30  1  0
 26 27  1  0
 27 28  2  0
 28 29  1  0
 29 30  2  0
M  END
>  <Gold.Gold.Protein.RotatedWaterAtoms>  (594) 


>  <Gold.Id.Protein>  (594) 


>  <Gold.PLP.Chemscore.CHOScore>  (594) 
0.0000

>  <Gold.PLP.Chemscore.Hbond>  (594) 
1.9280

>  <Gold.PLP.Chemscore.Internal.Correction>  (594) 
5.0242

>  <Gold.PLP.Chemscore.Metal>  (594) 
0.0000

>  <Gold.PLP.Fitness>  (594) 
75.5651

>  <Gold.PLP.PLP>  (594) 
-70.5279

>  <Gold.PLP.ligand.clash>  (594) 
0.0000

>  <Gold.PLP.ligand.torsion>  (594) 
2.8855

>  <Gold.PLP.part.buried>  (594) 
-10.4280

>  <Gold.PLP.part.hbond>  (594) 
-4.0000

>  <Gold.PLP.part.metal>  (594) 
0.0000

>  <Gold.PLP.part.nonpolar>  (594) 
-55.7076

>  <Gold.PLP.part.repulsive>  (594) 
0.5258

>  <Gold.Protein.RotatedAtoms>  (594) 


>  <Gold.Protein.RotatedTorsions>  (594) 


>  <Gold.Protein.RotatedWaterAtoms>  (594) 


>  <Gold.Version>  (594) 
5.3.0

>  <PLP.Chemscore.CHOScore>  (594) 


>  <PLP.Chemscore.Hbond>  (594) 


>  <PLP.Chemscore.Internal.Correction>  (594) 


>  <PLP.Chemscore.Metal>  (594) 


>  <PLP.Fitness>  (594) 


>  <PLP.PLP>  (594) 


>  <PLP.ligand.clash>  (594) 


>  <PLP.ligand.torsion>  (594) 


>  <PLP.part.buried>  (594) 


>  <PLP.part.hbond>  (594) 


>  <PLP.part.metal>  (594) 


>  <PLP.part.nonpolar>  (594) 


>  <PLP.part.repulsive>  (594) 


>  <Version>  (594) 


$$$$
3594|Compound_2186|Compounds_3D_F|sdf|645|dock2|1
     RDKit          3D

 30 33  0  0  0  0  0  0  0  0999 V2000
   -4.8874  -13.9973   12.2026 N   0  0  0  0  0  0  0  0  0  0  0  0
   -5.7848  -15.0015   12.2635 C   0  0  0  0  0  0  0  0  0  0  0  0
   -5.4046  -16.1498   12.4027 O   0  0  0  0  0  0  0  0  0  0  0  0
   -7.1713  -14.7200   12.1640 C   0  0  0  0  0  0  0  0  0  0  0  0
   -8.1873  -15.6190   11.8784 C   0  0  0  0  0  0  0  0  0  0  0  0
   -9.3378  -14.9369   11.8821 N   0  0  0  0  0  0  0  0  0  0  0  0
   -9.1068  -13.6787   12.1507 C   0  0  0  0  0  0  0  0  0  0  0  0
   -7.7889  -13.4903   12.3387 N   0  0  0  0  0  0  0  0  0  0  0  0
   -8.0379  -16.9798   11.6322 N   0  0  0  0  0  0  0  0  0  0  0  0
   -9.0930  -17.7103   11.2199 C   0  0  0  0  0  0  0  0  0  0  0  0
  -10.1754  -17.1789   11.0625 O   0  0  0  0  0  0  0  0  0  0  0  0
   -8.9350  -19.1500   10.9596 C   0  0  0  0  0  0  0  0  0  0  0  0
   -9.9532  -20.0527   11.3209 C   0  0  0  0  0  0  0  0  0  0  0  0
   -9.7879  -21.4140   11.0675 C   0  0  0  0  0  0  0  0  0  0  0  0
   -8.6351  -21.8683   10.4679 C   0  0  0  0  0  0  0  0  0  0  0  0
   -7.6298  -20.9805   10.1107 C   0  0  0  0  0  0  0  0  0  0  0  0
   -7.7735  -19.6316   10.3468 C   0  0  0  0  0  0  0  0  0  0  0  0
  -11.4713  -19.4483   12.1101 P   0  0  0  0  0  0  0  0  0  0  0  0
  -12.7990  -19.5857   10.8825 C   0  0  0  0  0  0  0  0  0  0  0  0
  -12.8736  -18.6777    9.8296 C   0  0  0  0  0  0  0  0  0  0  0  0
  -13.8861  -18.7868    8.8985 C   0  0  0  0  0  0  0  0  0  0  0  0
  -14.8269  -19.7958    9.0094 C   0  0  0  0  0  0  0  0  0  0  0  0
  -14.7568  -20.7002   10.0542 C   0  0  0  0  0  0  0  0  0  0  0  0
  -13.7445  -20.6030   10.9871 C   0  0  0  0  0  0  0  0  0  0  0  0
  -11.8668  -20.6031   13.4516 C   0  0  0  0  0  0  0  0  0  0  0  0
  -10.8827  -21.4475   13.9599 C   0  0  0  0  0  0  0  0  0  0  0  0
  -11.1889  -22.3237   14.9809 C   0  0  0  0  0  0  0  0  0  0  0  0
  -12.4709  -22.3648   15.5001 C   0  0  0  0  0  0  0  0  0  0  0  0
  -13.4530  -21.5289   14.9979 C   0  0  0  0  0  0  0  0  0  0  0  0
  -13.1546  -20.6450   13.9811 C   0  0  0  0  0  0  0  0  0  0  0  0
  1  2  1  0
  2  3  2  0
  2  4  1  0
  4  5  2  0
  4  8  1  0
  5  6  1  0
  5  9  1  0
  6  7  2  0
  7  8  1  0
  9 10  1  0
 10 11  2  0
 10 12  1  0
 12 13  1  0
 12 17  2  0
 13 14  2  0
 13 18  1  0
 14 15  1  0
 15 16  2  0
 16 17  1  0
 18 19  1  0
 18 25  1  0
 19 20  2  0
 19 24  1  0
 20 21  1  0
 21 22  2  0
 22 23  1  0
 23 24  2  0
 25 26  2  0
 25 30  1  0
 26 27  1  0
 27 28  2  0
 28 29  1  0
 29 30  2  0
M  END
>  <Gold.Gold.Protein.RotatedWaterAtoms>  (595) 


>  <Gold.Id.Protein>  (595) 


>  <Gold.PLP.Chemscore.CHOScore>  (595) 
0.0000

>  <Gold.PLP.Chemscore.Hbond>  (595) 
1.9600

>  <Gold.PLP.Chemscore.Internal.Correction>  (595) 
4.9337

>  <Gold.PLP.Chemscore.Metal>  (595) 
0.0000

>  <Gold.PLP.Fitness>  (595) 
76.0194

>  <Gold.PLP.PLP>  (595) 
-71.1094

>  <Gold.PLP.ligand.clash>  (595) 
0.0000

>  <Gold.PLP.ligand.torsion>  (595) 
2.9518

>  <Gold.PLP.part.buried>  (595) 
-10.7575

>  <Gold.PLP.part.hbond>  (595) 
-4.0000

>  <Gold.PLP.part.metal>  (595) 
0.0000

>  <Gold.PLP.part.nonpolar>  (595) 
-56.0064

>  <Gold.PLP.part.repulsive>  (595) 
0.4962

>  <Gold.Protein.RotatedAtoms>  (595) 


>  <Gold.Protein.RotatedTorsions>  (595) 


>  <Gold.Protein.RotatedWaterAtoms>  (595) 


>  <Gold.Version>  (595) 
5.3.0

>  <PLP.Chemscore.CHOScore>  (595) 


>  <PLP.Chemscore.Hbond>  (595) 


>  <PLP.Chemscore.Internal.Correction>  (595) 


>  <PLP.Chemscore.Metal>  (595) 


>  <PLP.Fitness>  (595) 


>  <PLP.PLP>  (595) 


>  <PLP.ligand.clash>  (595) 


>  <PLP.ligand.torsion>  (595) 


>  <PLP.part.buried>  (595) 


>  <PLP.part.hbond>  (595) 


>  <PLP.part.metal>  (595) 


>  <PLP.part.nonpolar>  (595) 


>  <PLP.part.repulsive>  (595) 


>  <Version>  (595) 


$$$$
3595|Compound_2186|Compounds_3D_F|sdf|645|dock3|1
     RDKit          3D

 30 33  0  0  0  0  0  0  0  0999 V2000
   -7.2302  -19.1956   10.4060 N   0  0  0  0  0  0  0  0  0  0  0  0
   -6.6336  -18.1432   11.0009 C   0  0  0  0  0  0  0  0  0  0  0  0
   -5.4324  -18.1571   11.1998 O   0  0  0  0  0  0  0  0  0  0  0  0
   -7.4055  -17.0209   11.3959 C   0  0  0  0  0  0  0  0  0  0  0  0
   -8.7762  -16.8615   11.2618 C   0  0  0  0  0  0  0  0  0  0  0  0
   -9.0901  -15.6611   11.7614 N   0  0  0  0  0  0  0  0  0  0  0  0
   -8.0110  -15.0656   12.1964 C   0  0  0  0  0  0  0  0  0  0  0  0
   -6.9446  -15.8609   12.0010 N   0  0  0  0  0  0  0  0  0  0  0  0
   -9.6619  -17.7802   10.7086 N   0  0  0  0  0  0  0  0  0  0  0  0
  -10.8723  -17.9722   11.2700 C   0  0  0  0  0  0  0  0  0  0  0  0
  -11.1897  -17.3411   12.2598 O   0  0  0  0  0  0  0  0  0  0  0  0
  -11.8093  -18.9443   10.6849 C   0  0  0  0  0  0  0  0  0  0  0  0
  -11.7142  -20.3096   11.0152 C   0  0  0  0  0  0  0  0  0  0  0  0
  -12.6097  -21.2181   10.4520 C   0  0  0  0  0  0  0  0  0  0  0  0
  -13.5791  -20.7789    9.5789 C   0  0  0  0  0  0  0  0  0  0  0  0
  -13.6752  -19.4335    9.2516 C   0  0  0  0  0  0  0  0  0  0  0  0
  -12.8048  -18.5180    9.7996 C   0  0  0  0  0  0  0  0  0  0  0  0
  -10.4349  -20.8829   12.1675 P   0  0  0  0  0  0  0  0  0  0  0  0
  -11.2782  -21.3727   13.6964 C   0  0  0  0  0  0  0  0  0  0  0  0
  -12.6105  -21.0239   13.9018 C   0  0  0  0  0  0  0  0  0  0  0  0
  -13.2472  -21.3989   15.0671 C   0  0  0  0  0  0  0  0  0  0  0  0
  -12.5646  -22.1201   16.0312 C   0  0  0  0  0  0  0  0  0  0  0  0
  -11.2406  -22.4687   15.8314 C   0  0  0  0  0  0  0  0  0  0  0  0
  -10.5968  -22.1034   14.6667 C   0  0  0  0  0  0  0  0  0  0  0  0
   -9.7143  -22.3865   11.4535 C   0  0  0  0  0  0  0  0  0  0  0  0
   -9.5818  -22.5104   10.0725 C   0  0  0  0  0  0  0  0  0  0  0  0
   -9.0323  -23.6561    9.5347 C   0  0  0  0  0  0  0  0  0  0  0  0
   -8.6132  -24.6813   10.3643 C   0  0  0  0  0  0  0  0  0  0  0  0
   -8.7438  -24.5640   11.7371 C   0  0  0  0  0  0  0  0  0  0  0  0
   -9.2864  -23.4194   12.2845 C   0  0  0  0  0  0  0  0  0  0  0  0
  1  2  1  0
  2  3  2  0
  2  4  1  0
  4  5  2  0
  4  8  1  0
  5  6  1  0
  5  9  1  0
  6  7  2  0
  7  8  1  0
  9 10  1  0
 10 11  2  0
 10 12  1  0
 12 13  1  0
 12 17  2  0
 13 14  2  0
 13 18  1  0
 14 15  1  0
 15 16  2  0
 16 17  1  0
 18 19  1  0
 18 25  1  0
 19 20  2  0
 19 24  1  0
 20 21  1  0
 21 22  2  0
 22 23  1  0
 23 24  2  0
 25 26  2  0
 25 30  1  0
 26 27  1  0
 27 28  2  0
 28 29  1  0
 29 30  2  0
M  END
>  <Gold.Gold.Protein.RotatedWaterAtoms>  (596) 


>  <Gold.Id.Protein>  (596) 


>  <Gold.PLP.Chemscore.CHOScore>  (596) 
0.0000

>  <Gold.PLP.Chemscore.Hbond>  (596) 
1.9920

>  <Gold.PLP.Chemscore.Internal.Correction>  (596) 
4.9246

>  <Gold.PLP.Chemscore.Metal>  (596) 
0.0000

>  <Gold.PLP.Fitness>  (596) 
54.7683

>  <Gold.PLP.PLP>  (596) 
-51.4157

>  <Gold.PLP.ligand.clash>  (596) 
0.0000

>  <Gold.PLP.ligand.torsion>  (596) 
3.7740

>  <Gold.PLP.part.buried>  (596) 
-5.9522

>  <Gold.PLP.part.hbond>  (596) 
-3.0000

>  <Gold.PLP.part.metal>  (596) 
0.0000

>  <Gold.PLP.part.nonpolar>  (596) 
-42.8053

>  <Gold.PLP.part.repulsive>  (596) 
0.2119

>  <Gold.Protein.RotatedAtoms>  (596) 


>  <Gold.Protein.RotatedTorsions>  (596) 


>  <Gold.Protein.RotatedWaterAtoms>  (596) 


>  <Gold.Version>  (596) 
5.3.0

>  <PLP.Chemscore.CHOScore>  (596) 


>  <PLP.Chemscore.Hbond>  (596) 


>  <PLP.Chemscore.Internal.Correction>  (596) 


>  <PLP.Chemscore.Metal>  (596) 


>  <PLP.Fitness>  (596) 


>  <PLP.PLP>  (596) 


>  <PLP.ligand.clash>  (596) 


>  <PLP.ligand.torsion>  (596) 


>  <PLP.part.buried>  (596) 


>  <PLP.part.hbond>  (596) 


>  <PLP.part.metal>  (596) 


>  <PLP.part.nonpolar>  (596) 


>  <PLP.part.repulsive>  (596) 


>  <Version>  (596) 


$$$$
3596|Compound_2186|Compounds_3D_F|sdf|645|dock4|1
     RDKit          3D

 30 33  0  0  0  0  0  0  0  0999 V2000
   -4.8892  -13.9190   12.4858 N   0  0  0  0  0  0  0  0  0  0  0  0
   -5.7770  -14.9261   12.3635 C   0  0  0  0  0  0  0  0  0  0  0  0
   -5.3921  -16.0813   12.3738 O   0  0  0  0  0  0  0  0  0  0  0  0
   -7.1588  -14.6396   12.2215 C   0  0  0  0  0  0  0  0  0  0  0  0
   -8.1645  -15.5289   11.8750 C   0  0  0  0  0  0  0  0  0  0  0  0
   -9.3138  -14.8451   11.8555 N   0  0  0  0  0  0  0  0  0  0  0  0
   -9.0917  -13.5951   12.1660 C   0  0  0  0  0  0  0  0  0  0  0  0
   -7.7814  -13.4140   12.4067 N   0  0  0  0  0  0  0  0  0  0  0  0
   -8.0072  -16.8828   11.5978 N   0  0  0  0  0  0  0  0  0  0  0  0
   -9.0816  -17.6382   11.2943 C   0  0  0  0  0  0  0  0  0  0  0  0
  -10.1882  -17.1351   11.2621 O   0  0  0  0  0  0  0  0  0  0  0  0
   -8.9152  -19.0706   11.0012 C   0  0  0  0  0  0  0  0  0  0  0  0
   -9.9244  -19.9884   11.3494 C   0  0  0  0  0  0  0  0  0  0  0  0
   -9.7514  -21.3425   11.0649 C   0  0  0  0  0  0  0  0  0  0  0  0
   -8.5997  -21.7752   10.4475 C   0  0  0  0  0  0  0  0  0  0  0  0
   -7.6032  -20.8725   10.1030 C   0  0  0  0  0  0  0  0  0  0  0  0
   -7.7548  -19.5302   10.3698 C   0  0  0  0  0  0  0  0  0  0  0  0
  -11.4412  -19.4124   12.1623 P   0  0  0  0  0  0  0  0  0  0  0  0
  -12.7772  -19.5353   10.9422 C   0  0  0  0  0  0  0  0  0  0  0  0
  -12.7994  -18.6816    9.8424 C   0  0  0  0  0  0  0  0  0  0  0  0
  -13.8185  -18.7793    8.9172 C   0  0  0  0  0  0  0  0  0  0  0  0
  -14.8176  -19.7230    9.0805 C   0  0  0  0  0  0  0  0  0  0  0  0
  -14.7996  -20.5732   10.1719 C   0  0  0  0  0  0  0  0  0  0  0  0
  -13.7815  -20.4873   11.0995 C   0  0  0  0  0  0  0  0  0  0  0  0
  -11.8173  -20.5976   13.4827 C   0  0  0  0  0  0  0  0  0  0  0  0
  -13.0870  -20.6274   14.0545 C   0  0  0  0  0  0  0  0  0  0  0  0
  -13.3679  -21.5315   15.0582 C   0  0  0  0  0  0  0  0  0  0  0  0
  -12.3913  -22.4079   15.4973 C   0  0  0  0  0  0  0  0  0  0  0  0
  -11.1275  -22.3819   14.9335 C   0  0  0  0  0  0  0  0  0  0  0  0
  -10.8391  -21.4854   13.9249 C   0  0  0  0  0  0  0  0  0  0  0  0
  1  2  1  0
  2  3  2  0
  2  4  1  0
  4  5  2  0
  4  8  1  0
  5  6  1  0
  5  9  1  0
  6  7  2  0
  7  8  1  0
  9 10  1  0
 10 11  2  0
 10 12  1  0
 12 13  1  0
 12 17  2  0
 13 14  2  0
 13 18  1  0
 14 15  1  0
 15 16  2  0
 16 17  1  0
 18 19  1  0
 18 25  1  0
 19 20  2  0
 19 24  1  0
 20 21  1  0
 21 22  2  0
 22 23  1  0
 23 24  2  0
 25 26  2  0
 25 30  1  0
 26 27  1  0
 27 28  2  0
 28 29  1  0
 29 30  2  0
M  END
>  <Gold.Gold.Protein.RotatedWaterAtoms>  (597) 


>  <Gold.Id.Protein>  (597) 


>  <Gold.PLP.Chemscore.CHOScore>  (597) 
0.0000

>  <Gold.PLP.Chemscore.Hbond>  (597) 
1.9600

>  <Gold.PLP.Chemscore.Internal.Correction>  (597) 
4.7007

>  <Gold.PLP.Chemscore.Metal>  (597) 
0.0000

>  <Gold.PLP.Fitness>  (597) 
76.2070

>  <Gold.PLP.PLP>  (597) 
-70.9622

>  <Gold.PLP.ligand.clash>  (597) 
0.0000

>  <Gold.PLP.ligand.torsion>  (597) 
2.6679

>  <Gold.PLP.part.buried>  (597) 
-11.1835

>  <Gold.PLP.part.hbond>  (597) 
-3.3983

>  <Gold.PLP.part.metal>  (597) 
0.0000

>  <Gold.PLP.part.nonpolar>  (597) 
-56.6313

>  <Gold.PLP.part.repulsive>  (597) 
0.5053

>  <Gold.Protein.RotatedAtoms>  (597) 


>  <Gold.Protein.RotatedTorsions>  (597) 


>  <Gold.Protein.RotatedWaterAtoms>  (597) 


>  <Gold.Version>  (597) 
5.3.0

>  <PLP.Chemscore.CHOScore>  (597) 


>  <PLP.Chemscore.Hbond>  (597) 


>  <PLP.Chemscore.Internal.Correction>  (597) 


>  <PLP.Chemscore.Metal>  (597) 


>  <PLP.Fitness>  (597) 


>  <PLP.PLP>  (597) 


>  <PLP.ligand.clash>  (597) 


>  <PLP.ligand.torsion>  (597) 


>  <PLP.part.buried>  (597) 


>  <PLP.part.hbond>  (597) 


>  <PLP.part.metal>  (597) 


>  <PLP.part.nonpolar>  (597) 


>  <PLP.part.repulsive>  (597) 


>  <Version>  (597) 


$$$$
3597|Compound_2187|Compounds_3D_F|sdf|646|dock1|1
     RDKit          3D

 30 33  0  0  0  0  0  0  0  0999 V2000
   -7.7400  -17.4908   11.5372 N   0  0  0  0  0  0  0  0  0  0  0  0
   -8.7316  -18.1382   10.8933 C   0  0  0  0  0  0  0  0  0  0  0  0
   -9.6452  -17.5091   10.3946 O   0  0  0  0  0  0  0  0  0  0  0  0
   -8.7091  -19.6055   10.7935 C   0  0  0  0  0  0  0  0  0  0  0  0
   -9.7846  -20.3674   11.2906 C   0  0  0  0  0  0  0  0  0  0  0  0
   -9.7477  -21.7575   11.1880 C   0  0  0  0  0  0  0  0  0  0  0  0
   -8.6664  -22.3773   10.6027 C   0  0  0  0  0  0  0  0  0  0  0  0
   -7.6057  -21.6281   10.1108 C   0  0  0  0  0  0  0  0  0  0  0  0
   -7.6230  -20.2546   10.1980 C   0  0  0  0  0  0  0  0  0  0  0  0
  -11.2064  -19.5452   12.0605 P   0  0  0  0  0  0  0  0  0  0  0  0
  -12.5376  -19.5236   10.8287 C   0  0  0  0  0  0  0  0  0  0  0  0
  -12.5930  -18.5081    9.8782 C   0  0  0  0  0  0  0  0  0  0  0  0
  -13.6083  -18.4962    8.9427 C   0  0  0  0  0  0  0  0  0  0  0  0
  -14.5685  -19.4921    8.9472 C   0  0  0  0  0  0  0  0  0  0  0  0
  -14.5166  -20.5043    9.8890 C   0  0  0  0  0  0  0  0  0  0  0  0
  -13.5037  -20.5280   10.8259 C   0  0  0  0  0  0  0  0  0  0  0  0
  -11.7609  -20.6094   13.4209 C   0  0  0  0  0  0  0  0  0  0  0  0
  -10.8558  -21.4505   14.0632 C   0  0  0  0  0  0  0  0  0  0  0  0
  -11.2817  -22.2586   15.0984 C   0  0  0  0  0  0  0  0  0  0  0  0
  -12.6065  -22.2334   15.4971 C   0  0  0  0  0  0  0  0  0  0  0  0
  -13.5093  -21.3999   14.8632 C   0  0  0  0  0  0  0  0  0  0  0  0
  -13.0916  -20.5844   13.8312 C   0  0  0  0  0  0  0  0  0  0  0  0
   -7.7653  -16.1013   11.6376 C   0  0  0  0  0  0  0  0  0  0  0  0
   -8.9256  -15.4654   11.6421 N   0  0  0  0  0  0  0  0  0  0  0  0
   -8.9940  -14.1509   11.7354 C   0  0  0  0  0  0  0  0  0  0  0  0
   -7.8474  -13.3866   11.8314 C   0  0  0  0  0  0  0  0  0  0  0  0
   -7.9622  -11.5034   11.9647 Br  0  0  0  0  0  0  0  0  0  0  0  0
   -6.6094  -14.0156   11.8291 C   0  0  0  0  0  0  0  0  0  0  0  0
   -6.5695  -15.3954   11.7364 C   0  0  0  0  0  0  0  0  0  0  0  0
   -4.7357  -16.4084   11.7275 I   0  0  0  0  0  0  0  0  0  0  0  0
  1  2  1  0
  1 23  1  0
  2  3  2  0
  2  4  1  0
  4  5  1  0
  4  9  2  0
  5  6  2  0
  5 10  1  0
  6  7  1  0
  7  8  2  0
  8  9  1  0
 10 11  1  0
 10 17  1  0
 11 12  2  0
 11 16  1  0
 12 13  1  0
 13 14  2  0
 14 15  1  0
 15 16  2  0
 17 18  2  0
 17 22  1  0
 18 19  1  0
 19 20  2  0
 20 21  1  0
 21 22  2  0
 23 24  2  0
 23 29  1  0
 24 25  1  0
 25 26  2  0
 26 27  1  0
 26 28  1  0
 28 29  2  0
 29 30  1  0
M  END
>  <Gold.Gold.Protein.RotatedWaterAtoms>  (598) 


>  <Gold.Id.Protein>  (598) 


>  <Gold.PLP.Chemscore.CHOScore>  (598) 
0.6700

>  <Gold.PLP.Chemscore.Hbond>  (598) 
0.0000

>  <Gold.PLP.Chemscore.Internal.Correction>  (598) 
5.3423

>  <Gold.PLP.Chemscore.Metal>  (598) 
0.0000

>  <Gold.PLP.Fitness>  (598) 
72.0124

>  <Gold.PLP.PLP>  (598) 
-71.6491

>  <Gold.PLP.ligand.clash>  (598) 
0.0000

>  <Gold.PLP.ligand.torsion>  (598) 
3.4945

>  <Gold.PLP.part.buried>  (598) 
-7.9214

>  <Gold.PLP.part.hbond>  (598) 
-1.4665

>  <Gold.PLP.part.metal>  (598) 
0.0000

>  <Gold.PLP.part.nonpolar>  (598) 
-62.7684

>  <Gold.PLP.part.repulsive>  (598) 
0.1447

>  <Gold.Protein.RotatedAtoms>  (598) 


>  <Gold.Protein.RotatedTorsions>  (598) 


>  <Gold.Protein.RotatedWaterAtoms>  (598) 


>  <Gold.Version>  (598) 
5.3.0

>  <PLP.Chemscore.CHOScore>  (598) 


>  <PLP.Chemscore.Hbond>  (598) 


>  <PLP.Chemscore.Internal.Correction>  (598) 


>  <PLP.Chemscore.Metal>  (598) 


>  <PLP.Fitness>  (598) 


>  <PLP.PLP>  (598) 


>  <PLP.ligand.clash>  (598) 


>  <PLP.ligand.torsion>  (598) 


>  <PLP.part.buried>  (598) 


>  <PLP.part.hbond>  (598) 


>  <PLP.part.metal>  (598) 


>  <PLP.part.nonpolar>  (598) 


>  <PLP.part.repulsive>  (598) 


>  <Version>  (598) 


$$$$
3598|Compound_2187|Compounds_3D_F|sdf|646|dock2|1
     RDKit          3D

 30 33  0  0  0  0  0  0  0  0999 V2000
   -7.7623  -17.3605   11.1201 N   0  0  0  0  0  0  0  0  0  0  0  0
   -8.8826  -18.0824   10.9181 C   0  0  0  0  0  0  0  0  0  0  0  0
   -9.9605  -17.5242   10.8430 O   0  0  0  0  0  0  0  0  0  0  0  0
   -8.8019  -19.5454   10.7883 C   0  0  0  0  0  0  0  0  0  0  0  0
   -9.8546  -20.3583   11.2523 C   0  0  0  0  0  0  0  0  0  0  0  0
   -9.7625  -21.7434   11.1215 C   0  0  0  0  0  0  0  0  0  0  0  0
   -8.6492  -22.3088   10.5410 C   0  0  0  0  0  0  0  0  0  0  0  0
   -7.6109  -21.5092   10.0818 C   0  0  0  0  0  0  0  0  0  0  0  0
   -7.6826  -20.1395   10.1970 C   0  0  0  0  0  0  0  0  0  0  0  0
  -11.3187  -19.6077   12.0160 P   0  0  0  0  0  0  0  0  0  0  0  0
  -12.6657  -19.7230   10.8069 C   0  0  0  0  0  0  0  0  0  0  0  0
  -13.9023  -19.1459   11.0821 C   0  0  0  0  0  0  0  0  0  0  0  0
  -14.9244  -19.2364   10.1583 C   0  0  0  0  0  0  0  0  0  0  0  0
  -14.7211  -19.8973    8.9601 C   0  0  0  0  0  0  0  0  0  0  0  0
  -13.4933  -20.4710    8.6816 C   0  0  0  0  0  0  0  0  0  0  0  0
  -12.4636  -20.3828    9.5961 C   0  0  0  0  0  0  0  0  0  0  0  0
  -11.7786  -20.6565   13.4229 C   0  0  0  0  0  0  0  0  0  0  0  0
  -13.0875  -20.6531   13.8982 C   0  0  0  0  0  0  0  0  0  0  0  0
  -13.4336  -21.4530   14.9689 C   0  0  0  0  0  0  0  0  0  0  0  0
  -12.4810  -22.2570   15.5695 C   0  0  0  0  0  0  0  0  0  0  0  0
  -11.1800  -22.2647   15.1014 C   0  0  0  0  0  0  0  0  0  0  0  0
  -10.8261  -21.4726   14.0281 C   0  0  0  0  0  0  0  0  0  0  0  0
   -7.8399  -15.9754   11.2498 C   0  0  0  0  0  0  0  0  0  0  0  0
   -8.8106  -15.3134   10.6413 N   0  0  0  0  0  0  0  0  0  0  0  0
   -8.9203  -14.0020   10.7382 C   0  0  0  0  0  0  0  0  0  0  0  0
   -8.0178  -13.2684   11.4835 C   0  0  0  0  0  0  0  0  0  0  0  0
   -8.1888  -11.3893   11.6127 Br  0  0  0  0  0  0  0  0  0  0  0  0
   -6.9836  -13.9255   12.1370 C   0  0  0  0  0  0  0  0  0  0  0  0
   -6.8979  -15.3015   12.0221 C   0  0  0  0  0  0  0  0  0  0  0  0
   -5.3629  -16.3557   12.9820 I   0  0  0  0  0  0  0  0  0  0  0  0
  1  2  1  0
  1 23  1  0
  2  3  2  0
  2  4  1  0
  4  5  1  0
  4  9  2  0
  5  6  2  0
  5 10  1  0
  6  7  1  0
  7  8  2  0
  8  9  1  0
 10 11  1  0
 10 17  1  0
 11 12  2  0
 11 16  1  0
 12 13  1  0
 13 14  2  0
 14 15  1  0
 15 16  2  0
 17 18  2  0
 17 22  1  0
 18 19  1  0
 19 20  2  0
 20 21  1  0
 21 22  2  0
 23 24  2  0
 23 29  1  0
 24 25  1  0
 25 26  2  0
 26 27  1  0
 26 28  1  0
 28 29  2  0
 29 30  1  0
M  END
>  <Gold.Gold.Protein.RotatedWaterAtoms>  (599) 


>  <Gold.Id.Protein>  (599) 


>  <Gold.PLP.Chemscore.CHOScore>  (599) 
1.1363

>  <Gold.PLP.Chemscore.Hbond>  (599) 
0.8221

>  <Gold.PLP.Chemscore.Internal.Correction>  (599) 
5.1571

>  <Gold.PLP.Chemscore.Metal>  (599) 
0.0000

>  <Gold.PLP.Fitness>  (599) 
74.1992

>  <Gold.PLP.PLP>  (599) 
-68.6618

>  <Gold.PLP.ligand.clash>  (599) 
0.0048

>  <Gold.PLP.ligand.torsion>  (599) 
2.7452

>  <Gold.PLP.part.buried>  (599) 
-5.9653

>  <Gold.PLP.part.hbond>  (599) 
-2.0000

>  <Gold.PLP.part.metal>  (599) 
0.0000

>  <Gold.PLP.part.nonpolar>  (599) 
-59.3799

>  <Gold.PLP.part.repulsive>  (599) 
0.1119

>  <Gold.Protein.RotatedAtoms>  (599) 


>  <Gold.Protein.RotatedTorsions>  (599) 


>  <Gold.Protein.RotatedWaterAtoms>  (599) 


>  <Gold.Version>  (599) 
5.3.0

>  <PLP.Chemscore.CHOScore>  (599) 


>  <PLP.Chemscore.Hbond>  (599) 


>  <PLP.Chemscore.Internal.Correction>  (599) 


>  <PLP.Chemscore.Metal>  (599) 


>  <PLP.Fitness>  (599) 


>  <PLP.PLP>  (599) 


>  <PLP.ligand.clash>  (599) 


>  <PLP.ligand.torsion>  (599) 


>  <PLP.part.buried>  (599) 


>  <PLP.part.hbond>  (599) 


>  <PLP.part.metal>  (599) 


>  <PLP.part.nonpolar>  (599) 


>  <PLP.part.repulsive>  (599) 


>  <Version>  (599) 


$$$$
3599|Compound_2187|Compounds_3D_F|sdf|646|dock3|1
     RDKit          3D

 30 33  0  0  0  0  0  0  0  0999 V2000
   -7.7463  -17.4018   11.1531 N   0  0  0  0  0  0  0  0  0  0  0  0
   -8.8697  -18.1145   10.9359 C   0  0  0  0  0  0  0  0  0  0  0  0
   -9.9425  -17.5479   10.8513 O   0  0  0  0  0  0  0  0  0  0  0  0
   -8.7984  -19.5775   10.8012 C   0  0  0  0  0  0  0  0  0  0  0  0
   -9.8627  -20.3843   11.2491 C   0  0  0  0  0  0  0  0  0  0  0  0
   -9.7795  -21.7696   11.1138 C   0  0  0  0  0  0  0  0  0  0  0  0
   -8.6635  -22.3410   10.5444 C   0  0  0  0  0  0  0  0  0  0  0  0
   -7.6137  -21.5475   10.1011 C   0  0  0  0  0  0  0  0  0  0  0  0
   -7.6765  -20.1777   10.2211 C   0  0  0  0  0  0  0  0  0  0  0  0
  -11.3303  -19.6257   11.9981 P   0  0  0  0  0  0  0  0  0  0  0  0
  -12.6877  -19.8095   10.8092 C   0  0  0  0  0  0  0  0  0  0  0  0
  -13.9983  -19.5494   11.2001 C   0  0  0  0  0  0  0  0  0  0  0  0
  -15.0280  -19.6909   10.2913 C   0  0  0  0  0  0  0  0  0  0  0  0
  -14.7594  -20.0882    8.9937 C   0  0  0  0  0  0  0  0  0  0  0  0
  -13.4582  -20.3462    8.6003 C   0  0  0  0  0  0  0  0  0  0  0  0
  -12.4212  -20.2040    9.4995 C   0  0  0  0  0  0  0  0  0  0  0  0
  -11.7596  -20.6240   13.4506 C   0  0  0  0  0  0  0  0  0  0  0  0
  -10.7896  -21.4066   14.0717 C   0  0  0  0  0  0  0  0  0  0  0  0
  -11.1202  -22.1647   15.1772 C   0  0  0  0  0  0  0  0  0  0  0  0
  -12.4141  -22.1474   15.6673 C   0  0  0  0  0  0  0  0  0  0  0  0
  -13.3811  -21.3718   15.0549 C   0  0  0  0  0  0  0  0  0  0  0  0
  -13.0585  -20.6064   13.9527 C   0  0  0  0  0  0  0  0  0  0  0  0
   -7.8151  -16.0167   11.2876 C   0  0  0  0  0  0  0  0  0  0  0  0
   -8.7753  -15.3453   10.6727 N   0  0  0  0  0  0  0  0  0  0  0  0
   -8.8764  -14.0335   10.7737 C   0  0  0  0  0  0  0  0  0  0  0  0
   -7.9756  -13.3094   11.5303 C   0  0  0  0  0  0  0  0  0  0  0  0
   -8.1340  -11.4295   11.6653 Br  0  0  0  0  0  0  0  0  0  0  0  0
   -6.9523  -13.9765   12.1907 C   0  0  0  0  0  0  0  0  0  0  0  0
   -6.8755  -15.3526   12.0712 C   0  0  0  0  0  0  0  0  0  0  0  0
   -5.3571  -16.4216   13.0412 I   0  0  0  0  0  0  0  0  0  0  0  0
  1  2  1  0
  1 23  1  0
  2  3  2  0
  2  4  1  0
  4  5  1  0
  4  9  2  0
  5  6  2  0
  5 10  1  0
  6  7  1  0
  7  8  2  0
  8  9  1  0
 10 11  1  0
 10 17  1  0
 11 12  2  0
 11 16  1  0
 12 13  1  0
 13 14  2  0
 14 15  1  0
 15 16  2  0
 17 18  2  0
 17 22  1  0
 18 19  1  0
 19 20  2  0
 20 21  1  0
 21 22  2  0
 23 24  2  0
 23 29  1  0
 24 25  1  0
 25 26  2  0
 26 27  1  0
 26 28  1  0
 28 29  2  0
 29 30  1  0
M  END
>  <Gold.Gold.Protein.RotatedWaterAtoms>  (600) 


>  <Gold.Id.Protein>  (600) 


>  <Gold.PLP.Chemscore.CHOScore>  (600) 
1.1337

>  <Gold.PLP.Chemscore.Hbond>  (600) 
0.2272

>  <Gold.PLP.Chemscore.Internal.Correction>  (600) 
5.1571

>  <Gold.PLP.Chemscore.Metal>  (600) 
0.0000

>  <Gold.PLP.Fitness>  (600) 
73.4831

>  <Gold.PLP.PLP>  (600) 
-69.5333

>  <Gold.PLP.ligand.clash>  (600) 
0.0592

>  <Gold.PLP.ligand.torsion>  (600) 
2.6154

>  <Gold.PLP.part.buried>  (600) 
-5.5428

>  <Gold.PLP.part.hbond>  (600) 
-1.9936

>  <Gold.PLP.part.metal>  (600) 
0.0000

>  <Gold.PLP.part.nonpolar>  (600) 
-62.0983

>  <Gold.PLP.part.repulsive>  (600) 
0.1121

>  <Gold.Protein.RotatedAtoms>  (600) 


>  <Gold.Protein.RotatedTorsions>  (600) 


>  <Gold.Protein.RotatedWaterAtoms>  (600) 


>  <Gold.Version>  (600) 
5.3.0

>  <PLP.Chemscore.CHOScore>  (600) 


>  <PLP.Chemscore.Hbond>  (600) 


>  <PLP.Chemscore.Internal.Correction>  (600) 


>  <PLP.Chemscore.Metal>  (600) 


>  <PLP.Fitness>  (600) 


>  <PLP.PLP>  (600) 


>  <PLP.ligand.clash>  (600) 


>  <PLP.ligand.torsion>  (600) 


>  <PLP.part.buried>  (600) 


>  <PLP.part.hbond>  (600) 


>  <PLP.part.metal>  (600) 


>  <PLP.part.nonpolar>  (600) 


>  <PLP.part.repulsive>  (600) 


>  <Version>  (600) 


$$$$
3600|Compound_2188|Compounds_3D_F|sdf|647|dock1|1
     RDKit          3D

 33 36  0  0  0  0  0  0  0  0999 V2000
   -7.1287  -20.2787    9.0542 N   0  0  0  0  0  0  0  0  0  0  0  0
   -7.9997  -20.3629   10.0793 C   0  0  0  0  0  0  0  0  0  0  0  0
   -8.3822  -21.4521   10.4645 O   0  0  0  0  0  0  0  0  0  0  0  0
   -8.4879  -19.1380   10.7319 C   0  0  0  0  0  0  0  0  0  0  0  0
   -9.7937  -19.0874   11.2583 C   0  0  0  0  0  0  0  0  0  0  0  0
  -10.2421  -17.9189   11.8744 C   0  0  0  0  0  0  0  0  0  0  0  0
   -9.4102  -16.8251   11.9654 C   0  0  0  0  0  0  0  0  0  0  0  0
   -8.1239  -16.8735   11.4475 C   0  0  0  0  0  0  0  0  0  0  0  0
   -7.6586  -18.0178   10.8391 C   0  0  0  0  0  0  0  0  0  0  0  0
  -10.8851  -20.5314   11.1355 P   0  0  0  0  0  0  0  0  0  0  0  0
  -11.2882  -21.0367   12.8308 C   0  0  0  0  0  0  0  0  0  0  0  0
  -12.5049  -20.6668   13.3982 C   0  0  0  0  0  0  0  0  0  0  0  0
  -12.8079  -21.0539   14.6884 C   0  0  0  0  0  0  0  0  0  0  0  0
  -11.9048  -21.8071   15.4169 C   0  0  0  0  0  0  0  0  0  0  0  0
  -10.6952  -22.1767   14.8566 C   0  0  0  0  0  0  0  0  0  0  0  0
  -10.3850  -21.7994   13.5660 C   0  0  0  0  0  0  0  0  0  0  0  0
  -12.4287  -19.9661   10.3688 C   0  0  0  0  0  0  0  0  0  0  0  0
  -13.5030  -20.8413   10.2339 C   0  0  0  0  0  0  0  0  0  0  0  0
  -14.6757  -20.4066    9.6509 C   0  0  0  0  0  0  0  0  0  0  0  0
  -14.7849  -19.1032    9.1996 C   0  0  0  0  0  0  0  0  0  0  0  0
  -13.7203  -18.2294    9.3312 C   0  0  0  0  0  0  0  0  0  0  0  0
  -12.5446  -18.6531    9.9185 C   0  0  0  0  0  0  0  0  0  0  0  0
   -6.5694  -21.4431    8.5130 C   0  0  0  0  0  0  0  0  0  0  0  0
   -6.3894  -21.5687    7.1314 C   0  0  0  0  0  0  0  0  0  0  0  0
   -6.7632  -20.5401    6.2627 N   0  0  0  0  0  0  0  0  0  0  0  0
   -7.6478  -20.7798    5.2741 C   0  0  0  0  0  0  0  0  0  0  0  0
   -8.2062  -21.8539    5.2075 O   0  0  0  0  0  0  0  0  0  0  0  0
   -7.9404  -19.7132    4.2509 C   0  0  0  0  0  0  0  0  0  0  0  0
   -5.8292  -22.7471    6.6444 C   0  0  0  0  0  0  0  0  0  0  0  0
   -5.5586  -22.9841    4.7882 Br  0  0  0  0  0  0  0  0  0  0  0  0
   -5.4735  -23.7410    7.5356 C   0  0  0  0  0  0  0  0  0  0  0  0
   -5.6572  -23.5866    8.8329 N   0  0  0  0  0  0  0  0  0  0  0  0
   -6.1789  -22.4861    9.3380 C   0  0  0  0  0  0  0  0  0  0  0  0
  1  2  1  0
  1 23  1  0
  2  3  2  0
  2  4  1  0
  4  5  1  0
  4  9  2  0
  5  6  2  0
  5 10  1  0
  6  7  1  0
  7  8  2  0
  8  9  1  0
 10 11  1  0
 10 17  1  0
 11 12  2  0
 11 16  1  0
 12 13  1  0
 13 14  2  0
 14 15  1  0
 15 16  2  0
 17 18  2  0
 17 22  1  0
 18 19  1  0
 19 20  2  0
 20 21  1  0
 21 22  2  0
 23 24  2  0
 23 33  1  0
 24 25  1  0
 24 29  1  0
 25 26  1  0
 26 27  2  0
 26 28  1  0
 29 30  1  0
 29 31  2  0
 31 32  1  0
 32 33  2  0
M  END
>  <Gold.Gold.Protein.RotatedWaterAtoms>  (601) 


>  <Gold.Id.Protein>  (601) 


>  <Gold.PLP.Chemscore.CHOScore>  (601) 
0.0000

>  <Gold.PLP.Chemscore.Hbond>  (601) 
0.0000

>  <Gold.PLP.Chemscore.Internal.Correction>  (601) 
9.1121

>  <Gold.PLP.Chemscore.Metal>  (601) 
0.0000

>  <Gold.PLP.Fitness>  (601) 
52.1118

>  <Gold.PLP.PLP>  (601) 
-52.8386

>  <Gold.PLP.ligand.clash>  (601) 
2.4472

>  <Gold.PLP.ligand.torsion>  (601) 
3.6959

>  <Gold.PLP.part.buried>  (601) 
-4.6367

>  <Gold.PLP.part.hbond>  (601) 
0.0000

>  <Gold.PLP.part.metal>  (601) 
0.0000

>  <Gold.PLP.part.nonpolar>  (601) 
-47.8990

>  <Gold.PLP.part.repulsive>  (601) 
0.0326

>  <Gold.Protein.RotatedAtoms>  (601) 


>  <Gold.Protein.RotatedTorsions>  (601) 


>  <Gold.Protein.RotatedWaterAtoms>  (601) 


>  <Gold.Version>  (601) 
5.3.0

>  <PLP.Chemscore.CHOScore>  (601) 


>  <PLP.Chemscore.Hbond>  (601) 


>  <PLP.Chemscore.Internal.Correction>  (601) 


>  <PLP.Chemscore.Metal>  (601) 


>  <PLP.Fitness>  (601) 


>  <PLP.PLP>  (601) 


>  <PLP.ligand.clash>  (601) 


>  <PLP.ligand.torsion>  (601) 


>  <PLP.part.buried>  (601) 


>  <PLP.part.hbond>  (601) 


>  <PLP.part.metal>  (601) 


>  <PLP.part.nonpolar>  (601) 


>  <PLP.part.repulsive>  (601) 


>  <Version>  (601) 


$$$$
3601|Compound_2188|Compounds_3D_F|sdf|647|dock2|1
     RDKit          3D

 33 36  0  0  0  0  0  0  0  0999 V2000
   -7.6357  -16.8050   10.6718 N   0  0  0  0  0  0  0  0  0  0  0  0
   -8.4415  -17.8097   11.0691 C   0  0  0  0  0  0  0  0  0  0  0  0
   -9.2482  -17.6257   11.9615 O   0  0  0  0  0  0  0  0  0  0  0  0
   -8.3451  -19.1286   10.4241 C   0  0  0  0  0  0  0  0  0  0  0  0
   -9.4497  -20.0030   10.4298 C   0  0  0  0  0  0  0  0  0  0  0  0
   -9.3428  -21.2500    9.8138 C   0  0  0  0  0  0  0  0  0  0  0  0
   -8.1638  -21.6191    9.2052 C   0  0  0  0  0  0  0  0  0  0  0  0
   -7.0752  -20.7590    9.1987 C   0  0  0  0  0  0  0  0  0  0  0  0
   -7.1593  -19.5215    9.7967 C   0  0  0  0  0  0  0  0  0  0  0  0
  -11.0003  -19.5113   11.2330 P   0  0  0  0  0  0  0  0  0  0  0  0
  -12.3457  -19.9338   10.0915 C   0  0  0  0  0  0  0  0  0  0  0  0
  -13.1618  -18.9313    9.5737 C   0  0  0  0  0  0  0  0  0  0  0  0
  -14.1841  -19.2570    8.7049 C   0  0  0  0  0  0  0  0  0  0  0  0
  -14.3985  -20.5766    8.3495 C   0  0  0  0  0  0  0  0  0  0  0  0
  -13.5897  -21.5754    8.8615 C   0  0  0  0  0  0  0  0  0  0  0  0
  -12.5619  -21.2597    9.7265 C   0  0  0  0  0  0  0  0  0  0  0  0
  -11.1962  -20.5637   12.6973 C   0  0  0  0  0  0  0  0  0  0  0  0
  -10.2429  -21.5344   12.9924 C   0  0  0  0  0  0  0  0  0  0  0  0
  -10.3955  -22.3322   14.1080 C   0  0  0  0  0  0  0  0  0  0  0  0
  -11.4945  -22.1693   14.9326 C   0  0  0  0  0  0  0  0  0  0  0  0
  -12.4449  -21.2062   14.6439 C   0  0  0  0  0  0  0  0  0  0  0  0
  -12.2982  -20.3990   13.5332 C   0  0  0  0  0  0  0  0  0  0  0  0
   -7.8090  -15.5187   11.1978 C   0  0  0  0  0  0  0  0  0  0  0  0
   -6.7008  -14.7267   11.5169 C   0  0  0  0  0  0  0  0  0  0  0  0
   -5.4007  -15.1993   11.3204 N   0  0  0  0  0  0  0  0  0  0  0  0
   -4.9653  -16.2791   11.9998 C   0  0  0  0  0  0  0  0  0  0  0  0
   -5.7341  -16.9093   12.6938 O   0  0  0  0  0  0  0  0  0  0  0  0
   -3.5224  -16.7010   11.8980 C   0  0  0  0  0  0  0  0  0  0  0  0
   -6.9278  -13.4550   12.0374 C   0  0  0  0  0  0  0  0  0  0  0  0
   -5.4760  -12.3321   12.4915 Br  0  0  0  0  0  0  0  0  0  0  0  0
   -8.2281  -13.0245   12.2177 C   0  0  0  0  0  0  0  0  0  0  0  0
   -9.2490  -13.7991   11.9041 N   0  0  0  0  0  0  0  0  0  0  0  0
   -9.0807  -15.0073   11.4038 C   0  0  0  0  0  0  0  0  0  0  0  0
  1  2  1  0
  1 23  1  0
  2  3  2  0
  2  4  1  0
  4  5  1  0
  4  9  2  0
  5  6  2  0
  5 10  1  0
  6  7  1  0
  7  8  2  0
  8  9  1  0
 10 11  1  0
 10 17  1  0
 11 12  2  0
 11 16  1  0
 12 13  1  0
 13 14  2  0
 14 15  1  0
 15 16  2  0
 17 18  2  0
 17 22  1  0
 18 19  1  0
 19 20  2  0
 20 21  1  0
 21 22  2  0
 23 24  2  0
 23 33  1  0
 24 25  1  0
 24 29  1  0
 25 26  1  0
 26 27  2  0
 26 28  1  0
 29 30  1  0
 29 31  2  0
 31 32  1  0
 32 33  2  0
M  END
>  <Gold.Gold.Protein.RotatedWaterAtoms>  (602) 


>  <Gold.Id.Protein>  (602) 


>  <Gold.PLP.Chemscore.CHOScore>  (602) 
0.0938

>  <Gold.PLP.Chemscore.Hbond>  (602) 
0.9750

>  <Gold.PLP.Chemscore.Internal.Correction>  (602) 
9.1121

>  <Gold.PLP.Chemscore.Metal>  (602) 
0.0000

>  <Gold.PLP.Fitness>  (602) 
68.3906

>  <Gold.PLP.PLP>  (602) 
-68.9525

>  <Gold.PLP.ligand.clash>  (602) 
5.1167

>  <Gold.PLP.ligand.torsion>  (602) 
3.8818

>  <Gold.PLP.part.buried>  (602) 
-3.9543

>  <Gold.PLP.part.hbond>  (602) 
-1.8985

>  <Gold.PLP.part.metal>  (602) 
0.0000

>  <Gold.PLP.part.nonpolar>  (602) 
-63.7588

>  <Gold.PLP.part.repulsive>  (602) 
0.2642

>  <Gold.Protein.RotatedAtoms>  (602) 


>  <Gold.Protein.RotatedTorsions>  (602) 


>  <Gold.Protein.RotatedWaterAtoms>  (602) 


>  <Gold.Version>  (602) 
5.3.0

>  <PLP.Chemscore.CHOScore>  (602) 


>  <PLP.Chemscore.Hbond>  (602) 


>  <PLP.Chemscore.Internal.Correction>  (602) 


>  <PLP.Chemscore.Metal>  (602) 


>  <PLP.Fitness>  (602) 


>  <PLP.PLP>  (602) 


>  <PLP.ligand.clash>  (602) 


>  <PLP.ligand.torsion>  (602) 


>  <PLP.part.buried>  (602) 


>  <PLP.part.hbond>  (602) 


>  <PLP.part.metal>  (602) 


>  <PLP.part.nonpolar>  (602) 


>  <PLP.part.repulsive>  (602) 


>  <Version>  (602) 


$$$$
3602|Compound_2188|Compounds_3D_F|sdf|647|dock3|1
     RDKit          3D

 33 36  0  0  0  0  0  0  0  0999 V2000
   -7.6477  -16.7340   10.8272 N   0  0  0  0  0  0  0  0  0  0  0  0
   -8.4696  -17.7049   11.2728 C   0  0  0  0  0  0  0  0  0  0  0  0
   -9.2176  -17.4869   12.2078 O   0  0  0  0  0  0  0  0  0  0  0  0
   -8.4620  -19.0278   10.6290 C   0  0  0  0  0  0  0  0  0  0  0  0
   -9.5774  -19.8802   10.7470 C   0  0  0  0  0  0  0  0  0  0  0  0
   -9.5550  -21.1314   10.1306 C   0  0  0  0  0  0  0  0  0  0  0  0
   -8.4482  -21.5260    9.4124 C   0  0  0  0  0  0  0  0  0  0  0  0
   -7.3490  -20.6876    9.2952 C   0  0  0  0  0  0  0  0  0  0  0  0
   -7.3506  -19.4464    9.8915 C   0  0  0  0  0  0  0  0  0  0  0  0
  -11.0327  -19.3549   11.6944 P   0  0  0  0  0  0  0  0  0  0  0  0
  -12.4651  -19.5021   10.5905 C   0  0  0  0  0  0  0  0  0  0  0  0
  -13.2359  -20.6619   10.5991 C   0  0  0  0  0  0  0  0  0  0  0  0
  -14.3253  -20.7697    9.7578 C   0  0  0  0  0  0  0  0  0  0  0  0
  -14.6508  -19.7283    8.9074 C   0  0  0  0  0  0  0  0  0  0  0  0
  -13.8877  -18.5745    8.8962 C   0  0  0  0  0  0  0  0  0  0  0  0
  -12.7999  -18.4547    9.7369 C   0  0  0  0  0  0  0  0  0  0  0  0
  -11.2629  -20.5638   13.0269 C   0  0  0  0  0  0  0  0  0  0  0  0
  -12.4343  -20.5596   13.7792 C   0  0  0  0  0  0  0  0  0  0  0  0
  -12.6055  -21.4817   14.7914 C   0  0  0  0  0  0  0  0  0  0  0  0
  -11.6147  -22.4094   15.0600 C   0  0  0  0  0  0  0  0  0  0  0  0
  -10.4486  -22.4179   14.3155 C   0  0  0  0  0  0  0  0  0  0  0  0
  -10.2702  -21.5030   13.2967 C   0  0  0  0  0  0  0  0  0  0  0  0
   -7.7400  -15.4408   11.3567 C   0  0  0  0  0  0  0  0  0  0  0  0
   -6.5852  -14.6924   11.6086 C   0  0  0  0  0  0  0  0  0  0  0  0
   -5.3180  -15.2163   11.3402 N   0  0  0  0  0  0  0  0  0  0  0  0
   -4.8354  -16.2305   12.0857 C   0  0  0  0  0  0  0  0  0  0  0  0
   -5.5426  -16.7651   12.9128 O   0  0  0  0  0  0  0  0  0  0  0  0
   -3.4161  -16.6978   11.8922 C   0  0  0  0  0  0  0  0  0  0  0  0
   -6.7320  -13.4117   12.1357 C   0  0  0  0  0  0  0  0  0  0  0  0
   -5.2136  -12.3459   12.5012 Br  0  0  0  0  0  0  0  0  0  0  0  0
   -8.0020  -12.9299   12.3880 C   0  0  0  0  0  0  0  0  0  0  0  0
   -9.0687  -13.6642   12.1364 N   0  0  0  0  0  0  0  0  0  0  0  0
   -8.9768  -14.8793   11.6326 C   0  0  0  0  0  0  0  0  0  0  0  0
  1  2  1  0
  1 23  1  0
  2  3  2  0
  2  4  1  0
  4  5  1  0
  4  9  2  0
  5  6  2  0
  5 10  1  0
  6  7  1  0
  7  8  2  0
  8  9  1  0
 10 11  1  0
 10 17  1  0
 11 12  2  0
 11 16  1  0
 12 13  1  0
 13 14  2  0
 14 15  1  0
 15 16  2  0
 17 18  2  0
 17 22  1  0
 18 19  1  0
 19 20  2  0
 20 21  1  0
 21 22  2  0
 23 24  2  0
 23 33  1  0
 24 25  1  0
 24 29  1  0
 25 26  1  0
 26 27  2  0
 26 28  1  0
 29 30  1  0
 29 31  2  0
 31 32  1  0
 32 33  2  0
M  END
>  <Gold.Gold.Protein.RotatedWaterAtoms>  (603) 


>  <Gold.Id.Protein>  (603) 


>  <Gold.PLP.Chemscore.CHOScore>  (603) 
0.6374

>  <Gold.PLP.Chemscore.Hbond>  (603) 
1.0000

>  <Gold.PLP.Chemscore.Internal.Correction>  (603) 
9.1121

>  <Gold.PLP.Chemscore.Metal>  (603) 
0.0000

>  <Gold.PLP.Fitness>  (603) 
71.5732

>  <Gold.PLP.PLP>  (603) 
-70.6066

>  <Gold.PLP.ligand.clash>  (603) 
5.8745

>  <Gold.PLP.ligand.torsion>  (603) 
3.5916

>  <Gold.PLP.part.buried>  (603) 
-6.2882

>  <Gold.PLP.part.hbond>  (603) 
-1.0000

>  <Gold.PLP.part.metal>  (603) 
0.0000

>  <Gold.PLP.part.nonpolar>  (603) 
-64.3985

>  <Gold.PLP.part.repulsive>  (603) 
0.3034

>  <Gold.Protein.RotatedAtoms>  (603) 


>  <Gold.Protein.RotatedTorsions>  (603) 


>  <Gold.Protein.RotatedWaterAtoms>  (603) 


>  <Gold.Version>  (603) 
5.3.0

>  <PLP.Chemscore.CHOScore>  (603) 


>  <PLP.Chemscore.Hbond>  (603) 


>  <PLP.Chemscore.Internal.Correction>  (603) 


>  <PLP.Chemscore.Metal>  (603) 


>  <PLP.Fitness>  (603) 


>  <PLP.PLP>  (603) 


>  <PLP.ligand.clash>  (603) 


>  <PLP.ligand.torsion>  (603) 


>  <PLP.part.buried>  (603) 


>  <PLP.part.hbond>  (603) 


>  <PLP.part.metal>  (603) 


>  <PLP.part.nonpolar>  (603) 


>  <PLP.part.repulsive>  (603) 


>  <Version>  (603) 


$$$$
3603|Compound_2188|Compounds_3D_F|sdf|647|dock4|1
     RDKit          3D

 33 36  0  0  0  0  0  0  0  0999 V2000
   -7.7221  -16.6165   10.8292 N   0  0  0  0  0  0  0  0  0  0  0  0
   -8.8092  -17.4121   10.7886 C   0  0  0  0  0  0  0  0  0  0  0  0
   -9.8762  -17.0060   11.2102 O   0  0  0  0  0  0  0  0  0  0  0  0
   -8.7055  -18.7713   10.2350 C   0  0  0  0  0  0  0  0  0  0  0  0
   -9.6233  -19.7670   10.6235 C   0  0  0  0  0  0  0  0  0  0  0  0
   -9.5119  -21.0510   10.0897 C   0  0  0  0  0  0  0  0  0  0  0  0
   -8.5104  -21.3383    9.1891 C   0  0  0  0  0  0  0  0  0  0  0  0
   -7.6059  -20.3587    8.8055 C   0  0  0  0  0  0  0  0  0  0  0  0
   -7.6992  -19.0833    9.3161 C   0  0  0  0  0  0  0  0  0  0  0  0
  -10.9406  -19.3827   11.8103 P   0  0  0  0  0  0  0  0  0  0  0  0
  -12.5053  -19.4093   10.8922 C   0  0  0  0  0  0  0  0  0  0  0  0
  -13.5925  -20.1248   11.3876 C   0  0  0  0  0  0  0  0  0  0  0  0
  -14.7815  -20.1421   10.6861 C   0  0  0  0  0  0  0  0  0  0  0  0
  -14.8932  -19.4508    9.4930 C   0  0  0  0  0  0  0  0  0  0  0  0
  -13.8155  -18.7387    8.9978 C   0  0  0  0  0  0  0  0  0  0  0  0
  -12.6243  -18.7108    9.6939 C   0  0  0  0  0  0  0  0  0  0  0  0
  -10.9993  -20.7511   12.9993 C   0  0  0  0  0  0  0  0  0  0  0  0
  -10.0120  -21.7325   12.9841 C   0  0  0  0  0  0  0  0  0  0  0  0
  -10.0601  -22.7713   13.8912 C   0  0  0  0  0  0  0  0  0  0  0  0
  -11.0881  -22.8392   14.8147 C   0  0  0  0  0  0  0  0  0  0  0  0
  -12.0719  -21.8666   14.8341 C   0  0  0  0  0  0  0  0  0  0  0  0
  -12.0294  -20.8200   13.9344 C   0  0  0  0  0  0  0  0  0  0  0  0
   -7.8449  -15.2835   11.2411 C   0  0  0  0  0  0  0  0  0  0  0  0
   -6.7088  -14.5291   11.5530 C   0  0  0  0  0  0  0  0  0  0  0  0
   -5.4306  -15.0861   11.4626 N   0  0  0  0  0  0  0  0  0  0  0  0
   -5.1043  -16.1530   12.2193 C   0  0  0  0  0  0  0  0  0  0  0  0
   -5.9511  -16.7007   12.8923 O   0  0  0  0  0  0  0  0  0  0  0  0
   -3.6865  -16.6629   12.2302 C   0  0  0  0  0  0  0  0  0  0  0  0
   -6.8857  -13.2083   11.9578 C   0  0  0  0  0  0  0  0  0  0  0  0
   -5.3941  -12.1321   12.3955 Br  0  0  0  0  0  0  0  0  0  0  0  0
   -8.1658  -12.6945   12.0354 C   0  0  0  0  0  0  0  0  0  0  0  0
   -9.2141  -13.4359   11.7320 N   0  0  0  0  0  0  0  0  0  0  0  0
   -9.0929  -14.6888   11.3392 C   0  0  0  0  0  0  0  0  0  0  0  0
  1  2  1  0
  1 23  1  0
  2  3  2  0
  2  4  1  0
  4  5  1  0
  4  9  2  0
  5  6  2  0
  5 10  1  0
  6  7  1  0
  7  8  2  0
  8  9  1  0
 10 11  1  0
 10 17  1  0
 11 12  2  0
 11 16  1  0
 12 13  1  0
 13 14  2  0
 14 15  1  0
 15 16  2  0
 17 18  2  0
 17 22  1  0
 18 19  1  0
 19 20  2  0
 20 21  1  0
 21 22  2  0
 23 24  2  0
 23 33  1  0
 24 25  1  0
 24 29  1  0
 25 26  1  0
 26 27  2  0
 26 28  1  0
 29 30  1  0
 29 31  2  0
 31 32  1  0
 32 33  2  0
M  END
>  <Gold.Gold.Protein.RotatedWaterAtoms>  (604) 


>  <Gold.Id.Protein>  (604) 


>  <Gold.PLP.Chemscore.CHOScore>  (604) 
0.0000

>  <Gold.PLP.Chemscore.Hbond>  (604) 
1.5338

>  <Gold.PLP.Chemscore.Internal.Correction>  (604) 
9.1121

>  <Gold.PLP.Chemscore.Metal>  (604) 
0.0000

>  <Gold.PLP.Fitness>  (604) 
68.1356

>  <Gold.PLP.PLP>  (604) 
-73.4003

>  <Gold.PLP.ligand.clash>  (604) 
13.1135

>  <Gold.PLP.ligand.torsion>  (604) 
2.9323

>  <Gold.PLP.part.buried>  (604) 
-8.4330

>  <Gold.PLP.part.hbond>  (604) 
-2.4098

>  <Gold.PLP.part.metal>  (604) 
0.0000

>  <Gold.PLP.part.nonpolar>  (604) 
-64.0889

>  <Gold.PLP.part.repulsive>  (604) 
0.2549

>  <Gold.Protein.RotatedAtoms>  (604) 


>  <Gold.Protein.RotatedTorsions>  (604) 


>  <Gold.Protein.RotatedWaterAtoms>  (604) 


>  <Gold.Version>  (604) 
5.3.0

>  <PLP.Chemscore.CHOScore>  (604) 


>  <PLP.Chemscore.Hbond>  (604) 


>  <PLP.Chemscore.Internal.Correction>  (604) 


>  <PLP.Chemscore.Metal>  (604) 


>  <PLP.Fitness>  (604) 


>  <PLP.PLP>  (604) 


>  <PLP.ligand.clash>  (604) 


>  <PLP.ligand.torsion>  (604) 


>  <PLP.part.buried>  (604) 


>  <PLP.part.hbond>  (604) 


>  <PLP.part.metal>  (604) 


>  <PLP.part.nonpolar>  (604) 


>  <PLP.part.repulsive>  (604) 


>  <Version>  (604) 


$$$$
3604|Compound_2191|Compounds_3D_F|sdf|648|dock1|1
     RDKit          3D

 38 42  0  0  0  0  0  0  0  0999 V2000
   -7.3543  -20.4181    8.5238 O   0  0  0  0  0  0  0  0  0  0  0  0
   -8.0600  -19.7866    9.4927 C   0  0  0  0  0  0  0  0  0  0  0  0
   -8.9275  -20.5048   10.3295 C   0  0  0  0  0  0  0  0  0  0  0  0
   -9.2855  -21.8091   10.4361 N   0  0  0  0  0  0  0  0  0  0  0  0
  -10.1459  -21.9440   11.4029 C   0  0  0  0  0  0  0  0  0  0  0  0
  -10.3943  -20.7326   11.9790 N   0  0  0  0  0  0  0  0  0  0  0  0
   -9.6353  -19.7991   11.3188 C   0  0  0  0  0  0  0  0  0  0  0  0
   -9.4603  -18.4874   11.4272 N   0  0  0  0  0  0  0  0  0  0  0  0
   -8.6318  -17.8507   10.6165 C   0  0  0  0  0  0  0  0  0  0  0  0
   -7.9421  -18.4782    9.6726 N   0  0  0  0  0  0  0  0  0  0  0  0
   -8.4747  -16.4777   10.7610 N   0  0  0  0  0  0  0  0  0  0  0  0
   -7.5252  -15.9911   11.5837 C   0  0  0  0  0  0  0  0  0  0  0  0
   -6.8066  -16.7534   12.2011 O   0  0  0  0  0  0  0  0  0  0  0  0
   -7.3584  -14.5343   11.7360 C   0  0  0  0  0  0  0  0  0  0  0  0
   -6.1811  -14.0177   12.2872 C   0  0  0  0  0  0  0  0  0  0  0  0
   -6.0284  -12.6630   12.4283 C   0  0  0  0  0  0  0  0  0  0  0  0
   -7.0451  -11.8004   12.0231 C   0  0  0  0  0  0  0  0  0  0  0  0
   -6.8447  -10.0586   12.2044 S   0  0  0  0  0  0  0  0  0  0  0  0
   -8.3892   -9.3696   11.5500 C   0  0  0  0  0  0  0  0  0  0  0  0
   -8.2187  -12.3114   11.4740 C   0  0  0  0  0  0  0  0  0  0  0  0
   -8.3740  -13.6657   11.3260 C   0  0  0  0  0  0  0  0  0  0  0  0
  -11.3055  -20.4747   13.0966 C   0  0  0  0  0  0  0  0  0  0  0  0
  -10.6948  -20.8987   14.3350 O   0  0  0  0  0  0  0  0  0  0  0  0
  -11.5698  -21.8092   14.9757 C   0  0  0  0  0  0  0  0  0  0  0  0
  -10.9456  -22.8634   15.8674 C   0  0  0  0  0  0  0  0  0  0  0  0
  -12.0358  -23.5654   16.5115 O   0  0  0  0  0  0  0  0  0  0  0  0
  -13.2754  -24.1316   15.6299 P   0  0  0  0  0  0  0  0  0  0  0  0
  -14.4943  -24.2165   16.4661 O   0  0  0  0  0  0  0  0  0  0  0  0
  -12.9124  -25.5839   15.0392 O   0  0  0  0  0  0  0  0  0  0  0  0
  -13.5114  -23.0742   14.4097 O   0  0  0  0  0  0  0  0  0  0  0  0
  -12.3256  -22.5149   13.8187 C   0  0  0  0  0  0  0  0  0  0  0  0
  -12.6094  -21.2964   12.9147 C   0  0  0  0  0  0  0  0  0  0  0  0
  -12.7944  -21.7029   11.5336 O   0  0  0  0  0  0  0  0  0  0  0  0
  -13.9208  -22.3712   11.2401 C   0  0  0  0  0  0  0  0  0  0  0  0
  -14.5000  -22.9866   12.1035 O   0  0  0  0  0  0  0  0  0  0  0  0
  -14.4639  -22.3527    9.8347 C   0  0  0  0  0  0  0  0  0  0  0  0
  -13.4559  -21.6702    8.9074 C   0  0  0  0  0  0  0  0  0  0  0  0
  -14.0748  -21.5005    7.5183 C   0  0  0  0  0  0  0  0  0  0  0  0
  1  2  1  0
  2  3  2  0
  2 10  1  0
  3  4  1  0
  3  7  1  0
  4  5  2  0
  5  6  1  0
  6  7  1  0
  6 22  1  0
  7  8  2  0
  8  9  1  0
  9 10  2  0
  9 11  1  0
 11 12  1  0
 12 13  2  0
 12 14  1  0
 14 15  2  0
 14 21  1  0
 15 16  1  0
 16 17  2  0
 17 18  1  0
 17 20  1  0
 18 19  1  0
 20 21  2  0
 22 23  1  0
 22 32  1  0
 23 24  1  0
 24 25  1  0
 24 31  1  0
 25 26  1  0
 26 27  1  0
 27 28  2  0
 27 29  1  0
 27 30  1  0
 30 31  1  0
 31 32  1  0
 32 33  1  0
 33 34  1  0
 34 35  2  0
 34 36  1  0
 36 37  1  0
 37 38  1  0
M  END
>  <Gold.Gold.Protein.RotatedWaterAtoms>  (605) 


>  <Gold.Id.Protein>  (605) 


>  <Gold.PLP.Chemscore.CHOScore>  (605) 
0.0000

>  <Gold.PLP.Chemscore.Hbond>  (605) 
1.6976

>  <Gold.PLP.Chemscore.Internal.Correction>  (605) 
1.0017

>  <Gold.PLP.Chemscore.Metal>  (605) 
0.0000

>  <Gold.PLP.Fitness>  (605) 
67.8073

>  <Gold.PLP.PLP>  (605) 
-68.4193

>  <Gold.PLP.ligand.clash>  (605) 
3.1258

>  <Gold.PLP.ligand.torsion>  (605) 
1.7902

>  <Gold.PLP.part.buried>  (605) 
-3.1074

>  <Gold.PLP.part.hbond>  (605) 
-4.9501

>  <Gold.PLP.part.metal>  (605) 
0.0000

>  <Gold.PLP.part.nonpolar>  (605) 
-62.1382

>  <Gold.PLP.part.repulsive>  (605) 
0.3187

>  <Gold.Protein.RotatedAtoms>  (605) 


>  <Gold.Protein.RotatedTorsions>  (605) 


>  <Gold.Protein.RotatedWaterAtoms>  (605) 


>  <Gold.Version>  (605) 
5.3.0

>  <PLP.Chemscore.CHOScore>  (605) 


>  <PLP.Chemscore.Hbond>  (605) 


>  <PLP.Chemscore.Internal.Correction>  (605) 


>  <PLP.Chemscore.Metal>  (605) 


>  <PLP.Fitness>  (605) 


>  <PLP.PLP>  (605) 


>  <PLP.ligand.clash>  (605) 


>  <PLP.ligand.torsion>  (605) 


>  <PLP.part.buried>  (605) 


>  <PLP.part.hbond>  (605) 


>  <PLP.part.metal>  (605) 


>  <PLP.part.nonpolar>  (605) 


>  <PLP.part.repulsive>  (605) 


>  <Version>  (605) 


$$$$
3605|Compound_2191|Compounds_3D_F|sdf|648|dock2|1
     RDKit          3D

 38 42  0  0  0  0  0  0  0  0999 V2000
   -8.5667  -20.1151    7.3643 O   0  0  0  0  0  0  0  0  0  0  0  0
   -8.8558  -19.6963    8.6199 C   0  0  0  0  0  0  0  0  0  0  0  0
   -9.3948  -20.5834    9.5638 C   0  0  0  0  0  0  0  0  0  0  0  0
   -9.7409  -21.8952    9.5493 N   0  0  0  0  0  0  0  0  0  0  0  0
  -10.2045  -22.2334   10.7171 C   0  0  0  0  0  0  0  0  0  0  0  0
  -10.1846  -21.1581   11.5564 N   0  0  0  0  0  0  0  0  0  0  0  0
   -9.6757  -20.0955   10.8525 C   0  0  0  0  0  0  0  0  0  0  0  0
   -9.4235  -18.8220   11.1307 N   0  0  0  0  0  0  0  0  0  0  0  0
   -8.9147  -18.0209   10.2096 C   0  0  0  0  0  0  0  0  0  0  0  0
   -8.6316  -18.4410    8.9834 N   0  0  0  0  0  0  0  0  0  0  0  0
   -8.6641  -16.6944   10.5386 N   0  0  0  0  0  0  0  0  0  0  0  0
   -7.5097  -16.3576   11.1462 C   0  0  0  0  0  0  0  0  0  0  0  0
   -6.6878  -17.2146   11.4082 O   0  0  0  0  0  0  0  0  0  0  0  0
   -7.2438  -14.9499   11.4943 C   0  0  0  0  0  0  0  0  0  0  0  0
   -8.2234  -13.9763   11.2729 C   0  0  0  0  0  0  0  0  0  0  0  0
   -7.9740  -12.6682   11.5968 C   0  0  0  0  0  0  0  0  0  0  0  0
   -6.7452  -12.3079   12.1466 C   0  0  0  0  0  0  0  0  0  0  0  0
   -6.4283  -10.6249   12.5638 S   0  0  0  0  0  0  0  0  0  0  0  0
   -7.8489   -9.7291   11.8797 C   0  0  0  0  0  0  0  0  0  0  0  0
   -5.7675  -13.2747   12.3684 C   0  0  0  0  0  0  0  0  0  0  0  0
   -6.0143  -14.5855   12.0507 C   0  0  0  0  0  0  0  0  0  0  0  0
  -10.6267  -21.1400   12.9528 C   0  0  0  0  0  0  0  0  0  0  0  0
   -9.8312  -22.0607   13.7311 O   0  0  0  0  0  0  0  0  0  0  0  0
  -10.7042  -22.9659   14.3818 C   0  0  0  0  0  0  0  0  0  0  0  0
  -10.1722  -24.3529   14.6799 C   0  0  0  0  0  0  0  0  0  0  0  0
  -11.1831  -25.0288   15.4658 O   0  0  0  0  0  0  0  0  0  0  0  0
  -12.7301  -25.0335   14.9747 P   0  0  0  0  0  0  0  0  0  0  0  0
  -13.6308  -25.1821   16.1403 O   0  0  0  0  0  0  0  0  0  0  0  0
  -12.9737  -26.2377   13.9353 O   0  0  0  0  0  0  0  0  0  0  0  0
  -12.9997  -23.5999   14.2434 O   0  0  0  0  0  0  0  0  0  0  0  0
  -11.9260  -23.0907   13.4334 C   0  0  0  0  0  0  0  0  0  0  0  0
  -12.1038  -21.6076   13.0446 C   0  0  0  0  0  0  0  0  0  0  0  0
  -12.7829  -21.4803   11.7681 O   0  0  0  0  0  0  0  0  0  0  0  0
  -14.0844  -21.8070   11.7344 C   0  0  0  0  0  0  0  0  0  0  0  0
  -14.6210  -22.2512   12.7215 O   0  0  0  0  0  0  0  0  0  0  0  0
  -14.8765  -21.6181   10.4666 C   0  0  0  0  0  0  0  0  0  0  0  0
  -14.0456  -20.8184    9.4606 C   0  0  0  0  0  0  0  0  0  0  0  0
  -14.1832  -19.3241    9.7597 C   0  0  0  0  0  0  0  0  0  0  0  0
  1  2  1  0
  2  3  2  0
  2 10  1  0
  3  4  1  0
  3  7  1  0
  4  5  2  0
  5  6  1  0
  6  7  1  0
  6 22  1  0
  7  8  2  0
  8  9  1  0
  9 10  2  0
  9 11  1  0
 11 12  1  0
 12 13  2  0
 12 14  1  0
 14 15  2  0
 14 21  1  0
 15 16  1  0
 16 17  2  0
 17 18  1  0
 17 20  1  0
 18 19  1  0
 20 21  2  0
 22 23  1  0
 22 32  1  0
 23 24  1  0
 24 25  1  0
 24 31  1  0
 25 26  1  0
 26 27  1  0
 27 28  2  0
 27 29  1  0
 27 30  1  0
 30 31  1  0
 31 32  1  0
 32 33  1  0
 33 34  1  0
 34 35  2  0
 34 36  1  0
 36 37  1  0
 37 38  1  0
M  END
>  <Gold.Gold.Protein.RotatedWaterAtoms>  (606) 


>  <Gold.Id.Protein>  (606) 


>  <Gold.PLP.Chemscore.CHOScore>  (606) 
0.0000

>  <Gold.PLP.Chemscore.Hbond>  (606) 
2.0611

>  <Gold.PLP.Chemscore.Internal.Correction>  (606) 
0.7241

>  <Gold.PLP.Chemscore.Metal>  (606) 
0.0000

>  <Gold.PLP.Fitness>  (606) 
69.5748

>  <Gold.PLP.PLP>  (606) 
-64.8478

>  <Gold.PLP.ligand.clash>  (606) 
0.0000

>  <Gold.PLP.ligand.torsion>  (606) 
1.0902

>  <Gold.PLP.part.buried>  (606) 
-5.9788

>  <Gold.PLP.part.hbond>  (606) 
-5.0000

>  <Gold.PLP.part.metal>  (606) 
0.0000

>  <Gold.PLP.part.nonpolar>  (606) 
-54.5112

>  <Gold.PLP.part.repulsive>  (606) 
0.1980

>  <Gold.Protein.RotatedAtoms>  (606) 


>  <Gold.Protein.RotatedTorsions>  (606) 


>  <Gold.Protein.RotatedWaterAtoms>  (606) 


>  <Gold.Version>  (606) 
5.3.0

>  <PLP.Chemscore.CHOScore>  (606) 


>  <PLP.Chemscore.Hbond>  (606) 


>  <PLP.Chemscore.Internal.Correction>  (606) 


>  <PLP.Chemscore.Metal>  (606) 


>  <PLP.Fitness>  (606) 


>  <PLP.PLP>  (606) 


>  <PLP.ligand.clash>  (606) 


>  <PLP.ligand.torsion>  (606) 


>  <PLP.part.buried>  (606) 


>  <PLP.part.hbond>  (606) 


>  <PLP.part.metal>  (606) 


>  <PLP.part.nonpolar>  (606) 


>  <PLP.part.repulsive>  (606) 


>  <Version>  (606) 


$$$$
3606|Compound_2191|Compounds_3D_F|sdf|648|dock3|1
     RDKit          3D

 38 42  0  0  0  0  0  0  0  0999 V2000
   -8.3406  -19.8836    7.3131 O   0  0  0  0  0  0  0  0  0  0  0  0
   -8.7178  -19.5529    8.5716 C   0  0  0  0  0  0  0  0  0  0  0  0
   -9.2714  -20.5157    9.4290 C   0  0  0  0  0  0  0  0  0  0  0  0
   -9.5603  -21.8366    9.3179 N   0  0  0  0  0  0  0  0  0  0  0  0
  -10.0746  -22.2625   10.4347 C   0  0  0  0  0  0  0  0  0  0  0  0
  -10.1479  -21.2399   11.3347 N   0  0  0  0  0  0  0  0  0  0  0  0
   -9.6453  -20.1178   10.7249 C   0  0  0  0  0  0  0  0  0  0  0  0
   -9.4633  -18.8546   11.0910 N   0  0  0  0  0  0  0  0  0  0  0  0
   -8.9375  -17.9802   10.2496 C   0  0  0  0  0  0  0  0  0  0  0  0
   -8.5678  -18.3141    9.0199 N   0  0  0  0  0  0  0  0  0  0  0  0
   -8.7622  -16.6672   10.6693 N   0  0  0  0  0  0  0  0  0  0  0  0
   -7.5266  -16.2086   10.9487 C   0  0  0  0  0  0  0  0  0  0  0  0
   -6.5649  -16.9440   10.8354 O   0  0  0  0  0  0  0  0  0  0  0  0
   -7.3410  -14.8152   11.3931 C   0  0  0  0  0  0  0  0  0  0  0  0
   -6.1090  -14.4035   11.9120 C   0  0  0  0  0  0  0  0  0  0  0  0
   -5.9387  -13.1078   12.3250 C   0  0  0  0  0  0  0  0  0  0  0  0
   -6.9922  -12.2007   12.2282 C   0  0  0  0  0  0  0  0  0  0  0  0
   -6.7694  -10.5346   12.7586 S   0  0  0  0  0  0  0  0  0  0  0  0
   -8.0244   -9.6088   11.8330 C   0  0  0  0  0  0  0  0  0  0  0  0
   -8.2203  -12.6073   11.7121 C   0  0  0  0  0  0  0  0  0  0  0  0
   -8.3938  -13.9012   11.2928 C   0  0  0  0  0  0  0  0  0  0  0  0
  -10.6688  -21.3234   12.7012 C   0  0  0  0  0  0  0  0  0  0  0  0
   -9.8132  -22.1683   13.5015 O   0  0  0  0  0  0  0  0  0  0  0  0
  -10.6055  -23.1937   14.0723 C   0  0  0  0  0  0  0  0  0  0  0  0
   -9.9264  -24.5163   14.3645 C   0  0  0  0  0  0  0  0  0  0  0  0
  -10.8910  -25.3355   15.0679 O   0  0  0  0  0  0  0  0  0  0  0  0
  -12.3949  -25.5089   14.4827 P   0  0  0  0  0  0  0  0  0  0  0  0
  -13.3366  -25.8048   15.5862 O   0  0  0  0  0  0  0  0  0  0  0  0
  -12.4295  -26.6969   13.3977 O   0  0  0  0  0  0  0  0  0  0  0  0
  -12.7946  -24.0936   13.7757 O   0  0  0  0  0  0  0  0  0  0  0  0
  -11.7461  -23.4314   13.0475 C   0  0  0  0  0  0  0  0  0  0  0  0
  -12.0806  -21.9678   12.6892 C   0  0  0  0  0  0  0  0  0  0  0  0
  -12.6954  -21.8789   11.3773 O   0  0  0  0  0  0  0  0  0  0  0  0
  -13.9280  -22.3935   11.2453 C   0  0  0  0  0  0  0  0  0  0  0  0
  -14.4319  -22.9967   12.1628 O   0  0  0  0  0  0  0  0  0  0  0  0
  -14.6840  -22.2175    9.9538 C   0  0  0  0  0  0  0  0  0  0  0  0
  -14.0195  -21.1202    9.1194 C   0  0  0  0  0  0  0  0  0  0  0  0
  -14.4798  -19.7497    9.6207 C   0  0  0  0  0  0  0  0  0  0  0  0
  1  2  1  0
  2  3  2  0
  2 10  1  0
  3  4  1  0
  3  7  1  0
  4  5  2  0
  5  6  1  0
  6  7  1  0
  6 22  1  0
  7  8  2  0
  8  9  1  0
  9 10  2  0
  9 11  1  0
 11 12  1  0
 12 13  2  0
 12 14  1  0
 14 15  2  0
 14 21  1  0
 15 16  1  0
 16 17  2  0
 17 18  1  0
 17 20  1  0
 18 19  1  0
 20 21  2  0
 22 23  1  0
 22 32  1  0
 23 24  1  0
 24 25  1  0
 24 31  1  0
 25 26  1  0
 26 27  1  0
 27 28  2  0
 27 29  1  0
 27 30  1  0
 30 31  1  0
 31 32  1  0
 32 33  1  0
 33 34  1  0
 34 35  2  0
 34 36  1  0
 36 37  1  0
 37 38  1  0
M  END
>  <Gold.Gold.Protein.RotatedWaterAtoms>  (607) 


>  <Gold.Id.Protein>  (607) 


>  <Gold.PLP.Chemscore.CHOScore>  (607) 
0.0000

>  <Gold.PLP.Chemscore.Hbond>  (607) 
2.1236

>  <Gold.PLP.Chemscore.Internal.Correction>  (607) 
0.7241

>  <Gold.PLP.Chemscore.Metal>  (607) 
0.0000

>  <Gold.PLP.Fitness>  (607) 
66.6469

>  <Gold.PLP.PLP>  (607) 
-62.6446

>  <Gold.PLP.ligand.clash>  (607) 
0.0000

>  <Gold.PLP.ligand.torsion>  (607) 
1.5463

>  <Gold.PLP.part.buried>  (607) 
-8.2921

>  <Gold.PLP.part.hbond>  (607) 
-4.7359

>  <Gold.PLP.part.metal>  (607) 
0.0000

>  <Gold.PLP.part.nonpolar>  (607) 
-50.8334

>  <Gold.PLP.part.repulsive>  (607) 
0.0711

>  <Gold.Protein.RotatedAtoms>  (607) 


>  <Gold.Protein.RotatedTorsions>  (607) 


>  <Gold.Protein.RotatedWaterAtoms>  (607) 


>  <Gold.Version>  (607) 
5.3.0

>  <PLP.Chemscore.CHOScore>  (607) 


>  <PLP.Chemscore.Hbond>  (607) 


>  <PLP.Chemscore.Internal.Correction>  (607) 


>  <PLP.Chemscore.Metal>  (607) 


>  <PLP.Fitness>  (607) 


>  <PLP.PLP>  (607) 


>  <PLP.ligand.clash>  (607) 


>  <PLP.ligand.torsion>  (607) 


>  <PLP.part.buried>  (607) 


>  <PLP.part.hbond>  (607) 


>  <PLP.part.metal>  (607) 


>  <PLP.part.nonpolar>  (607) 


>  <PLP.part.repulsive>  (607) 


>  <Version>  (607) 


$$$$
3607|Compound_2194|Compounds_3D_F|sdf|649|dock1|1
     RDKit          3D

 21 22  0  0  0  0  0  0  0  0999 V2000
   -9.6054  -16.3594   12.0302 N   0  0  0  0  0  0  0  0  0  0  0  0
   -8.2827  -16.3343   11.7717 C   0  0  0  0  0  0  0  0  0  0  0  0
   -7.7147  -17.3465   11.4155 O   0  0  0  0  0  0  0  0  0  0  0  0
   -7.5225  -15.0695   11.9226 C   0  0  0  0  0  0  0  0  0  0  0  0
   -8.1179  -13.8955   11.7302 N   0  0  0  0  0  0  0  0  0  0  0  0
   -7.4419  -12.7659   11.8639 C   0  0  0  0  0  0  0  0  0  0  0  0
   -8.2704  -11.2335   11.5994 S   0  0  0  0  0  0  0  0  0  0  0  0
   -6.9846  -10.0821   12.1443 C   0  0  0  0  0  0  0  0  0  0  0  0
   -6.1564  -12.7564   12.1933 N   0  0  0  0  0  0  0  0  0  0  0  0
   -5.4997  -13.8835   12.4011 C   0  0  0  0  0  0  0  0  0  0  0  0
   -6.1717  -15.0931   12.2760 C   0  0  0  0  0  0  0  0  0  0  0  0
   -5.2740  -16.7326   12.5635 Br  0  0  0  0  0  0  0  0  0  0  0  0
  -10.3162  -17.5416   11.8944 C   0  0  0  0  0  0  0  0  0  0  0  0
  -11.5547  -17.7491   12.2677 N   0  0  0  0  0  0  0  0  0  0  0  0
  -11.8869  -18.9602   11.9859 N   0  0  0  0  0  0  0  0  0  0  0  0
  -10.8806  -19.5673   11.4253 C   0  0  0  0  0  0  0  0  0  0  0  0
   -9.8656  -18.6858   11.3489 O   0  0  0  0  0  0  0  0  0  0  0  0
  -10.8578  -20.9952   10.9448 C   0  0  0  0  0  0  0  0  0  0  0  0
  -12.0999  -21.5902   11.1922 F   0  0  0  0  0  0  0  0  0  0  0  0
  -10.5938  -21.0213    9.5720 F   0  0  0  0  0  0  0  0  0  0  0  0
   -9.8594  -21.7009   11.6259 F   0  0  0  0  0  0  0  0  0  0  0  0
  1  2  1  0
  1 13  1  0
  2  3  2  0
  2  4  1  0
  4  5  2  0
  4 11  1  0
  5  6  1  0
  6  7  1  0
  6  9  2  0
  7  8  1  0
  9 10  1  0
 10 11  2  0
 11 12  1  0
 13 14  2  0
 13 17  1  0
 14 15  1  0
 15 16  2  0
 16 17  1  0
 16 18  1  0
 18 19  1  0
 18 20  1  0
 18 21  1  0
M  END
>  <Gold.Gold.Protein.RotatedWaterAtoms>  (608) 


>  <Gold.Id.Protein>  (608) 


>  <Gold.PLP.Chemscore.CHOScore>  (608) 
1.0000

>  <Gold.PLP.Chemscore.Hbond>  (608) 
1.0000

>  <Gold.PLP.Chemscore.Internal.Correction>  (608) 
0.0088

>  <Gold.PLP.Chemscore.Metal>  (608) 
0.0000

>  <Gold.PLP.Fitness>  (608) 
51.9788

>  <Gold.PLP.PLP>  (608) 
-46.8767

>  <Gold.PLP.ligand.clash>  (608) 
0.0000

>  <Gold.PLP.ligand.torsion>  (608) 
0.4533

>  <Gold.PLP.part.buried>  (608) 
-9.0396

>  <Gold.PLP.part.hbond>  (608) 
-3.0000

>  <Gold.PLP.part.metal>  (608) 
0.0000

>  <Gold.PLP.part.nonpolar>  (608) 
-35.5458

>  <Gold.PLP.part.repulsive>  (608) 
0.5315

>  <Gold.Protein.RotatedAtoms>  (608) 


>  <Gold.Protein.RotatedTorsions>  (608) 


>  <Gold.Protein.RotatedWaterAtoms>  (608) 


>  <Gold.Version>  (608) 
5.3.0

>  <PLP.Chemscore.CHOScore>  (608) 


>  <PLP.Chemscore.Hbond>  (608) 


>  <PLP.Chemscore.Internal.Correction>  (608) 


>  <PLP.Chemscore.Metal>  (608) 


>  <PLP.Fitness>  (608) 


>  <PLP.PLP>  (608) 


>  <PLP.ligand.clash>  (608) 


>  <PLP.ligand.torsion>  (608) 


>  <PLP.part.buried>  (608) 


>  <PLP.part.hbond>  (608) 


>  <PLP.part.metal>  (608) 


>  <PLP.part.nonpolar>  (608) 


>  <PLP.part.repulsive>  (608) 


>  <Version>  (608) 


$$$$
3608|Compound_2194|Compounds_3D_F|sdf|649|dock2|1
     RDKit          3D

 21 22  0  0  0  0  0  0  0  0999 V2000
   -9.0313  -16.1754   11.9022 N   0  0  0  0  0  0  0  0  0  0  0  0
   -9.0042  -14.8736   12.2511 C   0  0  0  0  0  0  0  0  0  0  0  0
  -10.0343  -14.3032   12.5473 O   0  0  0  0  0  0  0  0  0  0  0  0
   -7.7155  -14.1394   12.2730 C   0  0  0  0  0  0  0  0  0  0  0  0
   -7.6939  -12.8098   12.2325 N   0  0  0  0  0  0  0  0  0  0  0  0
   -6.5456  -12.1526   12.2516 C   0  0  0  0  0  0  0  0  0  0  0  0
   -6.5637  -10.3915   12.1961 S   0  0  0  0  0  0  0  0  0  0  0  0
   -8.2508  -10.1123   11.6033 C   0  0  0  0  0  0  0  0  0  0  0  0
   -5.3803  -12.7846   12.3127 N   0  0  0  0  0  0  0  0  0  0  0  0
   -5.3241  -14.1036   12.3569 C   0  0  0  0  0  0  0  0  0  0  0  0
   -6.5060  -14.8338   12.3436 C   0  0  0  0  0  0  0  0  0  0  0  0
   -6.4762  -16.7237   12.4051 Br  0  0  0  0  0  0  0  0  0  0  0  0
  -10.2353  -16.8616   11.8766 C   0  0  0  0  0  0  0  0  0  0  0  0
  -11.2440  -16.6887   12.6945 N   0  0  0  0  0  0  0  0  0  0  0  0
  -12.1944  -17.4955   12.3744 N   0  0  0  0  0  0  0  0  0  0  0  0
  -11.8315  -18.2083   11.3469 C   0  0  0  0  0  0  0  0  0  0  0  0
  -10.5879  -17.8227   11.0038 O   0  0  0  0  0  0  0  0  0  0  0  0
  -12.6555  -19.2685   10.6632 C   0  0  0  0  0  0  0  0  0  0  0  0
  -11.8892  -19.8845    9.6676 F   0  0  0  0  0  0  0  0  0  0  0  0
  -13.0563  -20.2248   11.6013 F   0  0  0  0  0  0  0  0  0  0  0  0
  -13.7855  -18.6800   10.0841 F   0  0  0  0  0  0  0  0  0  0  0  0
  1  2  1  0
  1 13  1  0
  2  3  2  0
  2  4  1  0
  4  5  2  0
  4 11  1  0
  5  6  1  0
  6  7  1  0
  6  9  2  0
  7  8  1  0
  9 10  1  0
 10 11  2  0
 11 12  1  0
 13 14  2  0
 13 17  1  0
 14 15  1  0
 15 16  2  0
 16 17  1  0
 16 18  1  0
 18 19  1  0
 18 20  1  0
 18 21  1  0
M  END
>  <Gold.Gold.Protein.RotatedWaterAtoms>  (609) 


>  <Gold.Id.Protein>  (609) 


>  <Gold.PLP.Chemscore.CHOScore>  (609) 
0.9975

>  <Gold.PLP.Chemscore.Hbond>  (609) 
1.9108

>  <Gold.PLP.Chemscore.Internal.Correction>  (609) 
0.0088

>  <Gold.PLP.Chemscore.Metal>  (609) 
0.0000

>  <Gold.PLP.Fitness>  (609) 
57.2812

>  <Gold.PLP.PLP>  (609) 
-49.9827

>  <Gold.PLP.ligand.clash>  (609) 
0.0000

>  <Gold.PLP.ligand.torsion>  (609) 
0.7176

>  <Gold.PLP.part.buried>  (609) 
0.5084

>  <Gold.PLP.part.hbond>  (609) 
-8.0826

>  <Gold.PLP.part.metal>  (609) 
0.0000

>  <Gold.PLP.part.nonpolar>  (609) 
-44.2067

>  <Gold.PLP.part.repulsive>  (609) 
1.1933

>  <Gold.Protein.RotatedAtoms>  (609) 


>  <Gold.Protein.RotatedTorsions>  (609) 


>  <Gold.Protein.RotatedWaterAtoms>  (609) 


>  <Gold.Version>  (609) 
5.3.0

>  <PLP.Chemscore.CHOScore>  (609) 


>  <PLP.Chemscore.Hbond>  (609) 


>  <PLP.Chemscore.Internal.Correction>  (609) 


>  <PLP.Chemscore.Metal>  (609) 


>  <PLP.Fitness>  (609) 


>  <PLP.PLP>  (609) 


>  <PLP.ligand.clash>  (609) 


>  <PLP.ligand.torsion>  (609) 


>  <PLP.part.buried>  (609) 


>  <PLP.part.hbond>  (609) 


>  <PLP.part.metal>  (609) 


>  <PLP.part.nonpolar>  (609) 


>  <PLP.part.repulsive>  (609) 


>  <Version>  (609) 


$$$$
3609|Compound_2194|Compounds_3D_F|sdf|649|dock3|1
     RDKit          3D

 21 22  0  0  0  0  0  0  0  0999 V2000
   -9.0506  -16.9664   11.5126 N   0  0  0  0  0  0  0  0  0  0  0  0
   -9.0036  -15.6763   11.9007 C   0  0  0  0  0  0  0  0  0  0  0  0
  -10.0263  -15.0957   12.2024 O   0  0  0  0  0  0  0  0  0  0  0  0
   -7.7019  -14.9674   11.9588 C   0  0  0  0  0  0  0  0  0  0  0  0
   -7.6554  -13.6548   12.1707 N   0  0  0  0  0  0  0  0  0  0  0  0
   -6.4955  -13.0202   12.2228 C   0  0  0  0  0  0  0  0  0  0  0  0
   -6.4807  -11.2810   12.5055 S   0  0  0  0  0  0  0  0  0  0  0  0
   -7.9712  -10.8016   11.5973 C   0  0  0  0  0  0  0  0  0  0  0  0
   -5.3426  -13.6591   12.0690 N   0  0  0  0  0  0  0  0  0  0  0  0
   -5.3109  -14.9623   11.8564 C   0  0  0  0  0  0  0  0  0  0  0  0
   -6.5054  -15.6696   11.7988 C   0  0  0  0  0  0  0  0  0  0  0  0
   -6.5107  -17.5364   11.4966 Br  0  0  0  0  0  0  0  0  0  0  0  0
  -10.2667  -17.6287   11.4531 C   0  0  0  0  0  0  0  0  0  0  0  0
  -10.9056  -18.1691   12.4610 N   0  0  0  0  0  0  0  0  0  0  0  0
  -12.0010  -18.6957   12.0374 N   0  0  0  0  0  0  0  0  0  0  0  0
  -12.1027  -18.5121   10.7523 C   0  0  0  0  0  0  0  0  0  0  0  0
  -11.0131  -17.8296   10.3520 O   0  0  0  0  0  0  0  0  0  0  0  0
  -13.2360  -18.9747    9.8739 C   0  0  0  0  0  0  0  0  0  0  0  0
  -12.7464  -19.8642    8.9110 F   0  0  0  0  0  0  0  0  0  0  0  0
  -14.1995  -19.6188   10.6561 F   0  0  0  0  0  0  0  0  0  0  0  0
  -13.8136  -17.8704    9.2370 F   0  0  0  0  0  0  0  0  0  0  0  0
  1  2  1  0
  1 13  1  0
  2  3  2  0
  2  4  1  0
  4  5  2  0
  4 11  1  0
  5  6  1  0
  6  7  1  0
  6  9  2  0
  7  8  1  0
  9 10  1  0
 10 11  2  0
 11 12  1  0
 13 14  2  0
 13 17  1  0
 14 15  1  0
 15 16  2  0
 16 17  1  0
 16 18  1  0
 18 19  1  0
 18 20  1  0
 18 21  1  0
M  END
>  <Gold.Gold.Protein.RotatedWaterAtoms>  (610) 


>  <Gold.Id.Protein>  (610) 


>  <Gold.PLP.Chemscore.CHOScore>  (610) 
0.2108

>  <Gold.PLP.Chemscore.Hbond>  (610) 
1.5952

>  <Gold.PLP.Chemscore.Internal.Correction>  (610) 
0.0076

>  <Gold.PLP.Chemscore.Metal>  (610) 
0.0000

>  <Gold.PLP.Fitness>  (610) 
53.0726

>  <Gold.PLP.PLP>  (610) 
-49.8859

>  <Gold.PLP.ligand.clash>  (610) 
0.0000

>  <Gold.PLP.ligand.torsion>  (610) 
1.1194

>  <Gold.PLP.part.buried>  (610) 
-6.3417

>  <Gold.PLP.part.hbond>  (610) 
-1.9147

>  <Gold.PLP.part.metal>  (610) 
0.0000

>  <Gold.PLP.part.nonpolar>  (610) 
-41.7970

>  <Gold.PLP.part.repulsive>  (610) 
0.6037

>  <Gold.Protein.RotatedAtoms>  (610) 


>  <Gold.Protein.RotatedTorsions>  (610) 


>  <Gold.Protein.RotatedWaterAtoms>  (610) 


>  <Gold.Version>  (610) 
5.3.0

>  <PLP.Chemscore.CHOScore>  (610) 


>  <PLP.Chemscore.Hbond>  (610) 


>  <PLP.Chemscore.Internal.Correction>  (610) 


>  <PLP.Chemscore.Metal>  (610) 


>  <PLP.Fitness>  (610) 


>  <PLP.PLP>  (610) 


>  <PLP.ligand.clash>  (610) 


>  <PLP.ligand.torsion>  (610) 


>  <PLP.part.buried>  (610) 


>  <PLP.part.hbond>  (610) 


>  <PLP.part.metal>  (610) 


>  <PLP.part.nonpolar>  (610) 


>  <PLP.part.repulsive>  (610) 


>  <Version>  (610) 


$$$$
3610|Compound_2194|Compounds_3D_F|sdf|649|dock4|1
     RDKit          3D

 21 22  0  0  0  0  0  0  0  0999 V2000
   -9.6050  -16.2845   12.0805 N   0  0  0  0  0  0  0  0  0  0  0  0
   -8.2763  -16.2082   11.8661 C   0  0  0  0  0  0  0  0  0  0  0  0
   -7.6523  -17.2048   11.5638 O   0  0  0  0  0  0  0  0  0  0  0  0
   -7.5782  -14.9062   11.9995 C   0  0  0  0  0  0  0  0  0  0  0  0
   -8.2175  -13.7671   11.7473 N   0  0  0  0  0  0  0  0  0  0  0  0
   -7.5969  -12.6044   11.8653 C   0  0  0  0  0  0  0  0  0  0  0  0
   -8.4821  -11.1203   11.5212 S   0  0  0  0  0  0  0  0  0  0  0  0
   -7.2038   -9.8961   11.8998 C   0  0  0  0  0  0  0  0  0  0  0  0
   -6.3254  -12.5263   12.2374 N   0  0  0  0  0  0  0  0  0  0  0  0
   -5.6276  -13.6153   12.5053 C   0  0  0  0  0  0  0  0  0  0  0  0
   -6.2409  -14.8574   12.3988 C   0  0  0  0  0  0  0  0  0  0  0  0
   -5.2828  -16.4446   12.7719 Br  0  0  0  0  0  0  0  0  0  0  0  0
  -10.2579  -17.5013   11.9610 C   0  0  0  0  0  0  0  0  0  0  0  0
  -11.5059  -17.7459   12.2756 N   0  0  0  0  0  0  0  0  0  0  0  0
  -11.7718  -18.9815   12.0324 N   0  0  0  0  0  0  0  0  0  0  0  0
  -10.7115  -19.5683   11.5560 C   0  0  0  0  0  0  0  0  0  0  0  0
   -9.7308  -18.6476   11.4942 O   0  0  0  0  0  0  0  0  0  0  0  0
  -10.6032  -21.0136   11.1440 C   0  0  0  0  0  0  0  0  0  0  0  0
  -10.8896  -21.8337   12.2410 F   0  0  0  0  0  0  0  0  0  0  0  0
  -11.5142  -21.2751   10.1161 F   0  0  0  0  0  0  0  0  0  0  0  0
   -9.3039  -21.2744   10.6941 F   0  0  0  0  0  0  0  0  0  0  0  0
  1  2  1  0
  1 13  1  0
  2  3  2  0
  2  4  1  0
  4  5  2  0
  4 11  1  0
  5  6  1  0
  6  7  1  0
  6  9  2  0
  7  8  1  0
  9 10  1  0
 10 11  2  0
 11 12  1  0
 13 14  2  0
 13 17  1  0
 14 15  1  0
 15 16  2  0
 16 17  1  0
 16 18  1  0
 18 19  1  0
 18 20  1  0
 18 21  1  0
M  END
>  <Gold.Gold.Protein.RotatedWaterAtoms>  (611) 


>  <Gold.Id.Protein>  (611) 


>  <Gold.PLP.Chemscore.CHOScore>  (611) 
1.0000

>  <Gold.PLP.Chemscore.Hbond>  (611) 
1.0014

>  <Gold.PLP.Chemscore.Internal.Correction>  (611) 
0.0076

>  <Gold.PLP.Chemscore.Metal>  (611) 
0.0000

>  <Gold.PLP.Fitness>  (611) 
53.0534

>  <Gold.PLP.PLP>  (611) 
-47.8255

>  <Gold.PLP.ligand.clash>  (611) 
0.0000

>  <Gold.PLP.ligand.torsion>  (611) 
0.3919

>  <Gold.PLP.part.buried>  (611) 
-8.5385

>  <Gold.PLP.part.hbond>  (611) 
-3.0000

>  <Gold.PLP.part.metal>  (611) 
0.0000

>  <Gold.PLP.part.nonpolar>  (611) 
-36.9143

>  <Gold.PLP.part.repulsive>  (611) 
0.5413

>  <Gold.Protein.RotatedAtoms>  (611) 


>  <Gold.Protein.RotatedTorsions>  (611) 


>  <Gold.Protein.RotatedWaterAtoms>  (611) 


>  <Gold.Version>  (611) 
5.3.0

>  <PLP.Chemscore.CHOScore>  (611) 


>  <PLP.Chemscore.Hbond>  (611) 


>  <PLP.Chemscore.Internal.Correction>  (611) 


>  <PLP.Chemscore.Metal>  (611) 


>  <PLP.Fitness>  (611) 


>  <PLP.PLP>  (611) 


>  <PLP.ligand.clash>  (611) 


>  <PLP.ligand.torsion>  (611) 


>  <PLP.part.buried>  (611) 


>  <PLP.part.hbond>  (611) 


>  <PLP.part.metal>  (611) 


>  <PLP.part.nonpolar>  (611) 


>  <PLP.part.repulsive>  (611) 


>  <Version>  (611) 


$$$$
3611|Compound_2194|Compounds_3D_F|sdf|649|dock5|1
     RDKit          3D

 21 22  0  0  0  0  0  0  0  0999 V2000
   -9.4684  -16.5977   11.4818 N   0  0  0  0  0  0  0  0  0  0  0  0
   -8.1243  -16.6809   11.5423 C   0  0  0  0  0  0  0  0  0  0  0  0
   -7.5736  -17.7474   11.3592 O   0  0  0  0  0  0  0  0  0  0  0  0
   -7.3196  -15.4691   11.8323 C   0  0  0  0  0  0  0  0  0  0  0  0
   -7.8545  -14.2571   11.7113 N   0  0  0  0  0  0  0  0  0  0  0  0
   -7.1386  -13.1745   11.9691 C   0  0  0  0  0  0  0  0  0  0  0  0
   -7.8874  -11.5890   11.7956 S   0  0  0  0  0  0  0  0  0  0  0  0
   -6.4775  -10.5287   12.2004 C   0  0  0  0  0  0  0  0  0  0  0  0
   -5.8716  -13.2512   12.3563 N   0  0  0  0  0  0  0  0  0  0  0  0
   -5.2743  -14.4206   12.4993 C   0  0  0  0  0  0  0  0  0  0  0  0
   -5.9899  -15.5837   12.2436 C   0  0  0  0  0  0  0  0  0  0  0  0
   -5.1778  -17.2809   12.4343 Br  0  0  0  0  0  0  0  0  0  0  0  0
  -10.2220  -17.7301   11.2158 C   0  0  0  0  0  0  0  0  0  0  0  0
   -9.9182  -18.9600   11.5497 N   0  0  0  0  0  0  0  0  0  0  0  0
  -10.8466  -19.7531   11.1427 N   0  0  0  0  0  0  0  0  0  0  0  0
  -11.7721  -19.0646   10.5385 C   0  0  0  0  0  0  0  0  0  0  0  0
  -11.4036  -17.7699   10.5738 O   0  0  0  0  0  0  0  0  0  0  0  0
  -13.0292  -19.6160    9.9172 C   0  0  0  0  0  0  0  0  0  0  0  0
  -12.6911  -20.5482    8.9300 F   0  0  0  0  0  0  0  0  0  0  0  0
  -13.8015  -20.2394   10.9020 F   0  0  0  0  0  0  0  0  0  0  0  0
  -13.7615  -18.5719    9.3407 F   0  0  0  0  0  0  0  0  0  0  0  0
  1  2  1  0
  1 13  1  0
  2  3  2  0
  2  4  1  0
  4  5  2  0
  4 11  1  0
  5  6  1  0
  6  7  1  0
  6  9  2  0
  7  8  1  0
  9 10  1  0
 10 11  2  0
 11 12  1  0
 13 14  2  0
 13 17  1  0
 14 15  1  0
 15 16  2  0
 16 17  1  0
 16 18  1  0
 18 19  1  0
 18 20  1  0
 18 21  1  0
M  END
>  <Gold.Gold.Protein.RotatedWaterAtoms>  (612) 


>  <Gold.Id.Protein>  (612) 


>  <Gold.PLP.Chemscore.CHOScore>  (612) 
1.0000

>  <Gold.PLP.Chemscore.Hbond>  (612) 
0.4500

>  <Gold.PLP.Chemscore.Internal.Correction>  (612) 
0.0076

>  <Gold.PLP.Chemscore.Metal>  (612) 
0.0000

>  <Gold.PLP.Fitness>  (612) 
53.0967

>  <Gold.PLP.PLP>  (612) 
-49.4056

>  <Gold.PLP.ligand.clash>  (612) 
0.0000

>  <Gold.PLP.ligand.torsion>  (612) 
0.3332

>  <Gold.PLP.part.buried>  (612) 
-9.0579

>  <Gold.PLP.part.hbond>  (612) 
-2.0000

>  <Gold.PLP.part.metal>  (612) 
0.0000

>  <Gold.PLP.part.nonpolar>  (612) 
-40.3380

>  <Gold.PLP.part.repulsive>  (612) 
0.4016

>  <Gold.Protein.RotatedAtoms>  (612) 


>  <Gold.Protein.RotatedTorsions>  (612) 


>  <Gold.Protein.RotatedWaterAtoms>  (612) 


>  <Gold.Version>  (612) 
5.3.0

>  <PLP.Chemscore.CHOScore>  (612) 


>  <PLP.Chemscore.Hbond>  (612) 


>  <PLP.Chemscore.Internal.Correction>  (612) 


>  <PLP.Chemscore.Metal>  (612) 


>  <PLP.Fitness>  (612) 


>  <PLP.PLP>  (612) 


>  <PLP.ligand.clash>  (612) 


>  <PLP.ligand.torsion>  (612) 


>  <PLP.part.buried>  (612) 


>  <PLP.part.hbond>  (612) 


>  <PLP.part.metal>  (612) 


>  <PLP.part.nonpolar>  (612) 


>  <PLP.part.repulsive>  (612) 


>  <Version>  (612) 


$$$$
3612|Compound_2194|Compounds_3D_F|sdf|649|dock6|1
     RDKit          3D

 21 22  0  0  0  0  0  0  0  0999 V2000
   -8.8218  -16.1347   12.0674 N   0  0  0  0  0  0  0  0  0  0  0  0
   -8.9229  -14.7981   12.2102 C   0  0  0  0  0  0  0  0  0  0  0  0
  -10.0120  -14.2855   12.3686 O   0  0  0  0  0  0  0  0  0  0  0  0
   -7.7030  -13.9550   12.1738 C   0  0  0  0  0  0  0  0  0  0  0  0
   -7.7969  -12.6282   12.1963 N   0  0  0  0  0  0  0  0  0  0  0  0
   -6.7102  -11.8740   12.1637 C   0  0  0  0  0  0  0  0  0  0  0  0
   -6.8812  -10.1205   12.1950 S   0  0  0  0  0  0  0  0  0  0  0  0
   -8.5027   -9.9480   11.4095 C   0  0  0  0  0  0  0  0  0  0  0  0
   -5.4944  -12.4031   12.1093 N   0  0  0  0  0  0  0  0  0  0  0  0
   -5.3237  -13.7127   12.0853 C   0  0  0  0  0  0  0  0  0  0  0  0
   -6.4372  -14.5428   12.1226 C   0  0  0  0  0  0  0  0  0  0  0  0
   -6.2432  -16.4237   12.0902 Br  0  0  0  0  0  0  0  0  0  0  0  0
   -9.9612  -16.9234   12.0962 C   0  0  0  0  0  0  0  0  0  0  0  0
  -11.1034  -16.6155   12.6592 N   0  0  0  0  0  0  0  0  0  0  0  0
  -11.9359  -17.5822   12.4888 N   0  0  0  0  0  0  0  0  0  0  0  0
  -11.3613  -18.5367   11.8148 C   0  0  0  0  0  0  0  0  0  0  0  0
  -10.1021  -18.1427   11.5457 O   0  0  0  0  0  0  0  0  0  0  0  0
  -11.9924  -19.8424   11.4060 C   0  0  0  0  0  0  0  0  0  0  0  0
  -12.0433  -19.9185   10.0097 F   0  0  0  0  0  0  0  0  0  0  0  0
  -11.2307  -20.9043   11.9031 F   0  0  0  0  0  0  0  0  0  0  0  0
  -13.2904  -19.9158   11.9241 F   0  0  0  0  0  0  0  0  0  0  0  0
  1  2  1  0
  1 13  1  0
  2  3  2  0
  2  4  1  0
  4  5  2  0
  4 11  1  0
  5  6  1  0
  6  7  1  0
  6  9  2  0
  7  8  1  0
  9 10  1  0
 10 11  2  0
 11 12  1  0
 13 14  2  0
 13 17  1  0
 14 15  1  0
 15 16  2  0
 16 17  1  0
 16 18  1  0
 18 19  1  0
 18 20  1  0
 18 21  1  0
M  END
>  <Gold.Gold.Protein.RotatedWaterAtoms>  (613) 


>  <Gold.Id.Protein>  (613) 


>  <Gold.PLP.Chemscore.CHOScore>  (613) 
1.6813

>  <Gold.PLP.Chemscore.Hbond>  (613) 
1.1034

>  <Gold.PLP.Chemscore.Internal.Correction>  (613) 
0.0076

>  <Gold.PLP.Chemscore.Metal>  (613) 
0.0000

>  <Gold.PLP.Fitness>  (613) 
55.2791

>  <Gold.PLP.PLP>  (613) 
-47.9964

>  <Gold.PLP.ligand.clash>  (613) 
0.0000

>  <Gold.PLP.ligand.torsion>  (613) 
0.5395

>  <Gold.PLP.part.buried>  (613) 
-1.2716

>  <Gold.PLP.part.hbond>  (613) 
-6.3154

>  <Gold.PLP.part.metal>  (613) 
0.0000

>  <Gold.PLP.part.nonpolar>  (613) 
-41.2846

>  <Gold.PLP.part.repulsive>  (613) 
0.8630

>  <Gold.Protein.RotatedAtoms>  (613) 


>  <Gold.Protein.RotatedTorsions>  (613) 


>  <Gold.Protein.RotatedWaterAtoms>  (613) 


>  <Gold.Version>  (613) 
5.3.0

>  <PLP.Chemscore.CHOScore>  (613) 


>  <PLP.Chemscore.Hbond>  (613) 


>  <PLP.Chemscore.Internal.Correction>  (613) 


>  <PLP.Chemscore.Metal>  (613) 


>  <PLP.Fitness>  (613) 


>  <PLP.PLP>  (613) 


>  <PLP.ligand.clash>  (613) 


>  <PLP.ligand.torsion>  (613) 


>  <PLP.part.buried>  (613) 


>  <PLP.part.hbond>  (613) 


>  <PLP.part.metal>  (613) 


>  <PLP.part.nonpolar>  (613) 


>  <PLP.part.repulsive>  (613) 


>  <Version>  (613) 


$$$$
3613|Compound_2194|Compounds_3D_F|sdf|649|dock7|1
     RDKit          3D

 21 22  0  0  0  0  0  0  0  0999 V2000
   -9.0658  -17.3011   11.5341 N   0  0  0  0  0  0  0  0  0  0  0  0
   -8.9804  -16.0312   11.9781 C   0  0  0  0  0  0  0  0  0  0  0  0
   -9.9872  -15.4283   12.2895 O   0  0  0  0  0  0  0  0  0  0  0  0
   -7.6560  -15.3718   12.0859 C   0  0  0  0  0  0  0  0  0  0  0  0
   -6.5391  -16.0946   12.0917 N   0  0  0  0  0  0  0  0  0  0  0  0
   -5.3566  -15.5088   12.1880 C   0  0  0  0  0  0  0  0  0  0  0  0
   -3.9032  -16.5049   12.1921 S   0  0  0  0  0  0  0  0  0  0  0  0
   -4.6306  -18.1250   11.8425 C   0  0  0  0  0  0  0  0  0  0  0  0
   -5.2360  -14.1904   12.2804 N   0  0  0  0  0  0  0  0  0  0  0  0
   -6.3008  -13.4089   12.2798 C   0  0  0  0  0  0  0  0  0  0  0  0
   -7.5625  -13.9813   12.1758 C   0  0  0  0  0  0  0  0  0  0  0  0
   -9.1164  -12.9036   12.1707 Br  0  0  0  0  0  0  0  0  0  0  0  0
  -10.3030  -17.9170   11.4282 C   0  0  0  0  0  0  0  0  0  0  0  0
  -10.9118  -18.6004   12.3654 N   0  0  0  0  0  0  0  0  0  0  0  0
  -12.0409  -19.0255   11.9168 N   0  0  0  0  0  0  0  0  0  0  0  0
  -12.1949  -18.6318   10.6852 C   0  0  0  0  0  0  0  0  0  0  0  0
  -11.1042  -17.9180   10.3475 O   0  0  0  0  0  0  0  0  0  0  0  0
  -13.3804  -18.9185    9.8006 C   0  0  0  0  0  0  0  0  0  0  0  0
  -13.8061  -17.7323    9.1925 F   0  0  0  0  0  0  0  0  0  0  0  0
  -13.0153  -19.8419    8.8162 F   0  0  0  0  0  0  0  0  0  0  0  0
  -14.4219  -19.4460   10.5725 F   0  0  0  0  0  0  0  0  0  0  0  0
  1  2  1  0
  1 13  1  0
  2  3  2  0
  2  4  1  0
  4  5  2  0
  4 11  1  0
  5  6  1  0
  6  7  1  0
  6  9  2  0
  7  8  1  0
  9 10  1  0
 10 11  2  0
 11 12  1  0
 13 14  2  0
 13 17  1  0
 14 15  1  0
 15 16  2  0
 16 17  1  0
 16 18  1  0
 18 19  1  0
 18 20  1  0
 18 21  1  0
M  END
>  <Gold.Gold.Protein.RotatedWaterAtoms>  (614) 


>  <Gold.Id.Protein>  (614) 


>  <Gold.PLP.Chemscore.CHOScore>  (614) 
0.0000

>  <Gold.PLP.Chemscore.Hbond>  (614) 
1.9424

>  <Gold.PLP.Chemscore.Internal.Correction>  (614) 
0.0076

>  <Gold.PLP.Chemscore.Metal>  (614) 
0.0000

>  <Gold.PLP.Fitness>  (614) 
54.4211

>  <Gold.PLP.PLP>  (614) 
-51.2156

>  <Gold.PLP.ligand.clash>  (614) 
0.0000

>  <Gold.PLP.ligand.torsion>  (614) 
1.3147

>  <Gold.PLP.part.buried>  (614) 
-9.1913

>  <Gold.PLP.part.hbond>  (614) 
-2.2317

>  <Gold.PLP.part.metal>  (614) 
0.0000

>  <Gold.PLP.part.nonpolar>  (614) 
-40.3941

>  <Gold.PLP.part.repulsive>  (614) 
0.5000

>  <Gold.Protein.RotatedAtoms>  (614) 


>  <Gold.Protein.RotatedTorsions>  (614) 


>  <Gold.Protein.RotatedWaterAtoms>  (614) 


>  <Gold.Version>  (614) 
5.3.0

>  <PLP.Chemscore.CHOScore>  (614) 


>  <PLP.Chemscore.Hbond>  (614) 


>  <PLP.Chemscore.Internal.Correction>  (614) 


>  <PLP.Chemscore.Metal>  (614) 


>  <PLP.Fitness>  (614) 


>  <PLP.PLP>  (614) 


>  <PLP.ligand.clash>  (614) 


>  <PLP.ligand.torsion>  (614) 


>  <PLP.part.buried>  (614) 


>  <PLP.part.hbond>  (614) 


>  <PLP.part.metal>  (614) 


>  <PLP.part.nonpolar>  (614) 


>  <PLP.part.repulsive>  (614) 


>  <Version>  (614) 


$$$$
3614|Compound_2194|Compounds_3D_F|sdf|649|dock8|1
     RDKit          3D

 21 22  0  0  0  0  0  0  0  0999 V2000
   -8.0806  -16.1656   11.0101 N   0  0  0  0  0  0  0  0  0  0  0  0
   -8.3899  -14.9147   11.4060 C   0  0  0  0  0  0  0  0  0  0  0  0
   -9.5443  -14.5393   11.3837 O   0  0  0  0  0  0  0  0  0  0  0  0
   -7.3192  -13.9983   11.8686 C   0  0  0  0  0  0  0  0  0  0  0  0
   -7.4796  -12.6796   11.7962 N   0  0  0  0  0  0  0  0  0  0  0  0
   -6.5259  -11.8601   12.2080 C   0  0  0  0  0  0  0  0  0  0  0  0
   -6.7807  -10.1204   12.0935 S   0  0  0  0  0  0  0  0  0  0  0  0
   -8.5138  -10.0894   11.5728 C   0  0  0  0  0  0  0  0  0  0  0  0
   -5.3826  -12.3137   12.7064 N   0  0  0  0  0  0  0  0  0  0  0  0
   -5.1534  -13.6104   12.8100 C   0  0  0  0  0  0  0  0  0  0  0  0
   -6.1295  -14.5073   12.3938 C   0  0  0  0  0  0  0  0  0  0  0  0
   -5.8472  -16.3728   12.5223 Br  0  0  0  0  0  0  0  0  0  0  0  0
   -9.0793  -17.0215   10.5729 C   0  0  0  0  0  0  0  0  0  0  0  0
   -9.0613  -17.7383    9.4764 N   0  0  0  0  0  0  0  0  0  0  0  0
  -10.1531  -18.4147    9.3923 N   0  0  0  0  0  0  0  0  0  0  0  0
  -10.9039  -18.1579   10.4247 C   0  0  0  0  0  0  0  0  0  0  0  0
  -10.2428  -17.2760   11.1984 O   0  0  0  0  0  0  0  0  0  0  0  0
  -12.2629  -18.7448   10.7052 C   0  0  0  0  0  0  0  0  0  0  0  0
  -13.1325  -18.4297    9.6551 F   0  0  0  0  0  0  0  0  0  0  0  0
  -12.1562  -20.1341   10.8209 F   0  0  0  0  0  0  0  0  0  0  0  0
  -12.7632  -18.2137   11.8995 F   0  0  0  0  0  0  0  0  0  0  0  0
  1  2  1  0
  1 13  1  0
  2  3  2  0
  2  4  1  0
  4  5  2  0
  4 11  1  0
  5  6  1  0
  6  7  1  0
  6  9  2  0
  7  8  1  0
  9 10  1  0
 10 11  2  0
 11 12  1  0
 13 14  2  0
 13 17  1  0
 14 15  1  0
 15 16  2  0
 16 17  1  0
 16 18  1  0
 18 19  1  0
 18 20  1  0
 18 21  1  0
M  END
>  <Gold.Gold.Protein.RotatedWaterAtoms>  (615) 


>  <Gold.Id.Protein>  (615) 


>  <Gold.PLP.Chemscore.CHOScore>  (615) 
1.0000

>  <Gold.PLP.Chemscore.Hbond>  (615) 
0.4800

>  <Gold.PLP.Chemscore.Internal.Correction>  (615) 
0.0054

>  <Gold.PLP.Chemscore.Metal>  (615) 
0.0000

>  <Gold.PLP.Fitness>  (615) 
53.9038

>  <Gold.PLP.PLP>  (615) 
-50.9423

>  <Gold.PLP.ligand.clash>  (615) 
0.0000

>  <Gold.PLP.ligand.torsion>  (615) 
0.7420

>  <Gold.PLP.part.buried>  (615) 
-7.9277

>  <Gold.PLP.part.hbond>  (615) 
-1.6640

>  <Gold.PLP.part.metal>  (615) 
0.0000

>  <Gold.PLP.part.nonpolar>  (615) 
-41.5866

>  <Gold.PLP.part.repulsive>  (615) 
0.6434

>  <Gold.Protein.RotatedAtoms>  (615) 


>  <Gold.Protein.RotatedTorsions>  (615) 


>  <Gold.Protein.RotatedWaterAtoms>  (615) 


>  <Gold.Version>  (615) 
5.3.0

>  <PLP.Chemscore.CHOScore>  (615) 


>  <PLP.Chemscore.Hbond>  (615) 


>  <PLP.Chemscore.Internal.Correction>  (615) 


>  <PLP.Chemscore.Metal>  (615) 


>  <PLP.Fitness>  (615) 


>  <PLP.PLP>  (615) 


>  <PLP.ligand.clash>  (615) 


>  <PLP.ligand.torsion>  (615) 


>  <PLP.part.buried>  (615) 


>  <PLP.part.hbond>  (615) 


>  <PLP.part.metal>  (615) 


>  <PLP.part.nonpolar>  (615) 


>  <PLP.part.repulsive>  (615) 


>  <Version>  (615) 


$$$$
3615|Compound_2194|Compounds_3D_F|sdf|649|dock9|1
     RDKit          3D

 21 22  0  0  0  0  0  0  0  0999 V2000
   -9.1872  -16.7201   11.4061 N   0  0  0  0  0  0  0  0  0  0  0  0
   -9.0894  -15.4718   11.9055 C   0  0  0  0  0  0  0  0  0  0  0  0
  -10.0739  -14.9170   12.3493 O   0  0  0  0  0  0  0  0  0  0  0  0
   -7.7785  -14.7775   11.9125 C   0  0  0  0  0  0  0  0  0  0  0  0
   -7.7054  -13.4732   12.1642 N   0  0  0  0  0  0  0  0  0  0  0  0
   -6.5373  -12.8516   12.1707 C   0  0  0  0  0  0  0  0  0  0  0  0
   -6.4869  -11.1230   12.5087 S   0  0  0  0  0  0  0  0  0  0  0  0
   -7.9553  -10.5813   11.5996 C   0  0  0  0  0  0  0  0  0  0  0  0
   -5.4022  -13.4958   11.9307 N   0  0  0  0  0  0  0  0  0  0  0  0
   -5.3973  -14.7916   11.6742 C   0  0  0  0  0  0  0  0  0  0  0  0
   -6.6010  -15.4853   11.6617 C   0  0  0  0  0  0  0  0  0  0  0  0
   -6.6445  -17.3408   11.2995 Br  0  0  0  0  0  0  0  0  0  0  0  0
  -10.4123  -17.3683   11.3943 C   0  0  0  0  0  0  0  0  0  0  0  0
  -11.1755  -17.6029   12.4329 N   0  0  0  0  0  0  0  0  0  0  0  0
  -12.2364  -18.2230   12.0500 N   0  0  0  0  0  0  0  0  0  0  0  0
  -12.1914  -18.4058   10.7616 C   0  0  0  0  0  0  0  0  0  0  0  0
  -11.0414  -17.8665   10.3146 O   0  0  0  0  0  0  0  0  0  0  0  0
  -13.2384  -19.0916    9.9227 C   0  0  0  0  0  0  0  0  0  0  0  0
  -12.6446  -20.1245    9.1888 F   0  0  0  0  0  0  0  0  0  0  0  0
  -14.2294  -19.6212   10.7548 F   0  0  0  0  0  0  0  0  0  0  0  0
  -13.8121  -18.1659    9.0437 F   0  0  0  0  0  0  0  0  0  0  0  0
  1  2  1  0
  1 13  1  0
  2  3  2  0
  2  4  1  0
  4  5  2  0
  4 11  1  0
  5  6  1  0
  6  7  1  0
  6  9  2  0
  7  8  1  0
  9 10  1  0
 10 11  2  0
 11 12  1  0
 13 14  2  0
 13 17  1  0
 14 15  1  0
 15 16  2  0
 16 17  1  0
 16 18  1  0
 18 19  1  0
 18 20  1  0
 18 21  1  0
M  END
>  <Gold.Gold.Protein.RotatedWaterAtoms>  (616) 


>  <Gold.Id.Protein>  (616) 


>  <Gold.PLP.Chemscore.CHOScore>  (616) 
0.5742

>  <Gold.PLP.Chemscore.Hbond>  (616) 
1.5500

>  <Gold.PLP.Chemscore.Internal.Correction>  (616) 
0.0054

>  <Gold.PLP.Chemscore.Metal>  (616) 
0.0000

>  <Gold.PLP.Fitness>  (616) 
53.1703

>  <Gold.PLP.PLP>  (616) 
-48.7400

>  <Gold.PLP.ligand.clash>  (616) 
0.0000

>  <Gold.PLP.ligand.torsion>  (616) 
0.9738

>  <Gold.PLP.part.buried>  (616) 
-2.9500

>  <Gold.PLP.part.hbond>  (616) 
-5.4548

>  <Gold.PLP.part.metal>  (616) 
0.0000

>  <Gold.PLP.part.nonpolar>  (616) 
-42.2275

>  <Gold.PLP.part.repulsive>  (616) 
0.6292

>  <Gold.Protein.RotatedAtoms>  (616) 


>  <Gold.Protein.RotatedTorsions>  (616) 


>  <Gold.Protein.RotatedWaterAtoms>  (616) 


>  <Gold.Version>  (616) 
5.3.0

>  <PLP.Chemscore.CHOScore>  (616) 


>  <PLP.Chemscore.Hbond>  (616) 


>  <PLP.Chemscore.Internal.Correction>  (616) 


>  <PLP.Chemscore.Metal>  (616) 


>  <PLP.Fitness>  (616) 


>  <PLP.PLP>  (616) 


>  <PLP.ligand.clash>  (616) 


>  <PLP.ligand.torsion>  (616) 


>  <PLP.part.buried>  (616) 


>  <PLP.part.hbond>  (616) 


>  <PLP.part.metal>  (616) 


>  <PLP.part.nonpolar>  (616) 


>  <PLP.part.repulsive>  (616) 


>  <Version>  (616) 


$$$$
3616|Compound_2195|Compounds_3D_F|sdf|650|dock1|1
     RDKit          3D

 21 22  0  0  0  0  0  0  0  0999 V2000
   -8.6614  -15.8605   12.2295 N   0  0  0  0  0  0  0  0  0  0  0  0
   -8.8020  -14.5206   12.2723 C   0  0  0  0  0  0  0  0  0  0  0  0
   -9.9112  -14.0266   12.2745 O   0  0  0  0  0  0  0  0  0  0  0  0
   -7.6008  -13.6500   12.3171 C   0  0  0  0  0  0  0  0  0  0  0  0
   -7.7170  -12.3307   12.1912 N   0  0  0  0  0  0  0  0  0  0  0  0
   -6.6488  -11.5523   12.2304 C   0  0  0  0  0  0  0  0  0  0  0  0
   -6.8490   -9.8101   12.0593 S   0  0  0  0  0  0  0  0  0  0  0  0
   -8.4919   -9.7547   11.3017 C   0  0  0  0  0  0  0  0  0  0  0  0
   -5.4293  -12.0487   12.3967 N   0  0  0  0  0  0  0  0  0  0  0  0
   -5.2372  -13.3488   12.5298 C   0  0  0  0  0  0  0  0  0  0  0  0
   -6.3324  -14.2031   12.4992 C   0  0  0  0  0  0  0  0  0  0  0  0
   -6.1072  -16.0716   12.6845 Br  0  0  0  0  0  0  0  0  0  0  0  0
   -9.7889  -16.6790   12.1823 C   0  0  0  0  0  0  0  0  0  0  0  0
  -10.9671  -16.4224   12.6863 N   0  0  0  0  0  0  0  0  0  0  0  0
  -11.7420  -17.3282   12.4832 O   0  0  0  0  0  0  0  0  0  0  0  0
  -11.1689  -18.3298   11.8012 C   0  0  0  0  0  0  0  0  0  0  0  0
   -9.8883  -17.9580   11.5718 C   0  0  0  0  0  0  0  0  0  0  0  0
  -11.8231  -19.6170   11.3699 C   0  0  0  0  0  0  0  0  0  0  0  0
  -12.3302  -20.3694   12.6012 C   0  0  0  0  0  0  0  0  0  0  0  0
  -13.0005  -19.3039   10.4429 C   0  0  0  0  0  0  0  0  0  0  0  0
  -10.8052  -20.4825   10.6258 C   0  0  0  0  0  0  0  0  0  0  0  0
  1  2  1  0
  1 13  1  0
  2  3  2  0
  2  4  1  0
  4  5  2  0
  4 11  1  0
  5  6  1  0
  6  7  1  0
  6  9  2  0
  7  8  1  0
  9 10  1  0
 10 11  2  0
 11 12  1  0
 13 14  2  0
 13 17  1  0
 14 15  1  0
 15 16  1  0
 16 17  2  0
 16 18  1  0
 18 19  1  0
 18 20  1  0
 18 21  1  0
M  END
>  <Gold.Gold.Protein.RotatedWaterAtoms>  (617) 


>  <Gold.Id.Protein>  (617) 


>  <Gold.PLP.Chemscore.CHOScore>  (617) 
1.0000

>  <Gold.PLP.Chemscore.Hbond>  (617) 
2.0633

>  <Gold.PLP.Chemscore.Internal.Correction>  (617) 
0.0213

>  <Gold.PLP.Chemscore.Metal>  (617) 
0.0000

>  <Gold.PLP.Fitness>  (617) 
60.5161

>  <Gold.PLP.PLP>  (617) 
-52.2758

>  <Gold.PLP.ligand.clash>  (617) 
0.0000

>  <Gold.PLP.ligand.torsion>  (617) 
0.4855

>  <Gold.PLP.part.buried>  (617) 
-1.1835

>  <Gold.PLP.part.hbond>  (617) 
-5.7313

>  <Gold.PLP.part.metal>  (617) 
0.0000

>  <Gold.PLP.part.nonpolar>  (617) 
-46.1852

>  <Gold.PLP.part.repulsive>  (617) 
0.9086

>  <Gold.Protein.RotatedAtoms>  (617) 


>  <Gold.Protein.RotatedTorsions>  (617) 


>  <Gold.Protein.RotatedWaterAtoms>  (617) 


>  <Gold.Version>  (617) 
5.3.0

>  <PLP.Chemscore.CHOScore>  (617) 


>  <PLP.Chemscore.Hbond>  (617) 


>  <PLP.Chemscore.Internal.Correction>  (617) 


>  <PLP.Chemscore.Metal>  (617) 


>  <PLP.Fitness>  (617) 


>  <PLP.PLP>  (617) 


>  <PLP.ligand.clash>  (617) 


>  <PLP.ligand.torsion>  (617) 


>  <PLP.part.buried>  (617) 


>  <PLP.part.hbond>  (617) 


>  <PLP.part.metal>  (617) 


>  <PLP.part.nonpolar>  (617) 


>  <PLP.part.repulsive>  (617) 


>  <Version>  (617) 


$$$$
3617|Compound_2195|Compounds_3D_F|sdf|650|dock2|1
     RDKit          3D

 21 22  0  0  0  0  0  0  0  0999 V2000
   -8.3459  -15.7868   12.0119 N   0  0  0  0  0  0  0  0  0  0  0  0
   -8.6004  -14.4692   12.1402 C   0  0  0  0  0  0  0  0  0  0  0  0
   -9.7476  -14.0738   12.1799 O   0  0  0  0  0  0  0  0  0  0  0  0
   -7.4777  -13.5029   12.2333 C   0  0  0  0  0  0  0  0  0  0  0  0
   -7.6943  -12.1987   12.0847 N   0  0  0  0  0  0  0  0  0  0  0  0
   -6.6963  -11.3352   12.1667 C   0  0  0  0  0  0  0  0  0  0  0  0
   -7.0286   -9.6167   11.9633 S   0  0  0  0  0  0  0  0  0  0  0  0
   -8.8008   -9.6793   11.6010 C   0  0  0  0  0  0  0  0  0  0  0  0
   -5.4504  -11.7286   12.3997 N   0  0  0  0  0  0  0  0  0  0  0  0
   -5.1601  -13.0073   12.5590 C   0  0  0  0  0  0  0  0  0  0  0  0
   -6.1793  -13.9487   12.4852 C   0  0  0  0  0  0  0  0  0  0  0  0
   -5.8126  -15.7908   12.7056 Br  0  0  0  0  0  0  0  0  0  0  0  0
   -9.3997  -16.6948   11.9194 C   0  0  0  0  0  0  0  0  0  0  0  0
  -10.5743  -16.5947   12.4835 N   0  0  0  0  0  0  0  0  0  0  0  0
  -11.2757  -17.5426   12.2160 O   0  0  0  0  0  0  0  0  0  0  0  0
  -10.6465  -18.4184   11.4199 C   0  0  0  0  0  0  0  0  0  0  0  0
   -9.4129  -17.9128   11.1881 C   0  0  0  0  0  0  0  0  0  0  0  0
  -11.2040  -19.7116   10.8837 C   0  0  0  0  0  0  0  0  0  0  0  0
  -12.4654  -19.4243   10.0677 C   0  0  0  0  0  0  0  0  0  0  0  0
  -10.1598  -20.3838    9.9885 C   0  0  0  0  0  0  0  0  0  0  0  0
  -11.5499  -20.6403   12.0485 C   0  0  0  0  0  0  0  0  0  0  0  0
  1  2  1  0
  1 13  1  0
  2  3  2  0
  2  4  1  0
  4  5  2  0
  4 11  1  0
  5  6  1  0
  6  7  1  0
  6  9  2  0
  7  8  1  0
  9 10  1  0
 10 11  2  0
 11 12  1  0
 13 14  2  0
 13 17  1  0
 14 15  1  0
 15 16  1  0
 16 17  2  0
 16 18  1  0
 18 19  1  0
 18 20  1  0
 18 21  1  0
M  END
>  <Gold.Gold.Protein.RotatedWaterAtoms>  (618) 


>  <Gold.Id.Protein>  (618) 


>  <Gold.PLP.Chemscore.CHOScore>  (618) 
1.0000

>  <Gold.PLP.Chemscore.Hbond>  (618) 
1.3500

>  <Gold.PLP.Chemscore.Internal.Correction>  (618) 
0.0213

>  <Gold.PLP.Chemscore.Metal>  (618) 
0.0000

>  <Gold.PLP.Fitness>  (618) 
60.3554

>  <Gold.PLP.PLP>  (618) 
-53.9129

>  <Gold.PLP.ligand.clash>  (618) 
0.0000

>  <Gold.PLP.ligand.torsion>  (618) 
0.3144

>  <Gold.PLP.part.buried>  (618) 
-7.5528

>  <Gold.PLP.part.hbond>  (618) 
-4.4873

>  <Gold.PLP.part.metal>  (618) 
0.0000

>  <Gold.PLP.part.nonpolar>  (618) 
-43.7032

>  <Gold.PLP.part.repulsive>  (618) 
0.8161

>  <Gold.Protein.RotatedAtoms>  (618) 


>  <Gold.Protein.RotatedTorsions>  (618) 


>  <Gold.Protein.RotatedWaterAtoms>  (618) 


>  <Gold.Version>  (618) 
5.3.0

>  <PLP.Chemscore.CHOScore>  (618) 


>  <PLP.Chemscore.Hbond>  (618) 


>  <PLP.Chemscore.Internal.Correction>  (618) 


>  <PLP.Chemscore.Metal>  (618) 


>  <PLP.Fitness>  (618) 


>  <PLP.PLP>  (618) 


>  <PLP.ligand.clash>  (618) 


>  <PLP.ligand.torsion>  (618) 


>  <PLP.part.buried>  (618) 


>  <PLP.part.hbond>  (618) 


>  <PLP.part.metal>  (618) 


>  <PLP.part.nonpolar>  (618) 


>  <PLP.part.repulsive>  (618) 


>  <Version>  (618) 


$$$$
3618|Compound_2195|Compounds_3D_F|sdf|650|dock3|1
     RDKit          3D

 21 22  0  0  0  0  0  0  0  0999 V2000
   -8.8280  -16.2141   12.1801 N   0  0  0  0  0  0  0  0  0  0  0  0
   -8.8426  -14.8679   12.1109 C   0  0  0  0  0  0  0  0  0  0  0  0
   -9.8932  -14.2798   11.9539 O   0  0  0  0  0  0  0  0  0  0  0  0
   -7.5744  -14.1057   12.2269 C   0  0  0  0  0  0  0  0  0  0  0  0
   -7.5771  -12.7765   12.1713 N   0  0  0  0  0  0  0  0  0  0  0  0
   -6.4490  -12.0944   12.2740 C   0  0  0  0  0  0  0  0  0  0  0  0
   -6.4990  -10.3348   12.1948 S   0  0  0  0  0  0  0  0  0  0  0  0
   -8.1946  -10.0940   11.6092 C   0  0  0  0  0  0  0  0  0  0  0  0
   -5.2795  -12.7003   12.4367 N   0  0  0  0  0  0  0  0  0  0  0  0
   -5.1997  -14.0171   12.5021 C   0  0  0  0  0  0  0  0  0  0  0  0
   -6.3613  -14.7730   12.4032 C   0  0  0  0  0  0  0  0  0  0  0  0
   -6.2973  -16.6610   12.4901 Br  0  0  0  0  0  0  0  0  0  0  0  0
  -10.0181  -16.9313   12.0662 C   0  0  0  0  0  0  0  0  0  0  0  0
  -11.1412  -16.6929   12.6903 N   0  0  0  0  0  0  0  0  0  0  0  0
  -11.9962  -17.4908   12.3828 O   0  0  0  0  0  0  0  0  0  0  0  0
  -11.5447  -18.3855   11.4926 C   0  0  0  0  0  0  0  0  0  0  0  0
  -10.2537  -18.0655   11.2438 C   0  0  0  0  0  0  0  0  0  0  0  0
  -12.3229  -19.5233   10.8839 C   0  0  0  0  0  0  0  0  0  0  0  0
  -13.5090  -18.9662   10.0951 C   0  0  0  0  0  0  0  0  0  0  0  0
  -11.4125  -20.3168    9.9430 C   0  0  0  0  0  0  0  0  0  0  0  0
  -12.8343  -20.4432   11.9934 C   0  0  0  0  0  0  0  0  0  0  0  0
  1  2  1  0
  1 13  1  0
  2  3  2  0
  2  4  1  0
  4  5  2  0
  4 11  1  0
  5  6  1  0
  6  7  1  0
  6  9  2  0
  7  8  1  0
  9 10  1  0
 10 11  2  0
 11 12  1  0
 13 14  2  0
 13 17  1  0
 14 15  1  0
 15 16  1  0
 16 17  2  0
 16 18  1  0
 18 19  1  0
 18 20  1  0
 18 21  1  0
M  END
>  <Gold.Gold.Protein.RotatedWaterAtoms>  (619) 


>  <Gold.Id.Protein>  (619) 


>  <Gold.PLP.Chemscore.CHOScore>  (619) 
1.0000

>  <Gold.PLP.Chemscore.Hbond>  (619) 
1.6155

>  <Gold.PLP.Chemscore.Internal.Correction>  (619) 
0.0188

>  <Gold.PLP.Chemscore.Metal>  (619) 
0.0000

>  <Gold.PLP.Fitness>  (619) 
58.7368

>  <Gold.PLP.PLP>  (619) 
-51.9666

>  <Gold.PLP.ligand.clash>  (619) 
0.0000

>  <Gold.PLP.ligand.torsion>  (619) 
0.5475

>  <Gold.PLP.part.buried>  (619) 
-2.8998

>  <Gold.PLP.part.hbond>  (619) 
-4.9957

>  <Gold.PLP.part.metal>  (619) 
0.0000

>  <Gold.PLP.part.nonpolar>  (619) 
-45.2288

>  <Gold.PLP.part.repulsive>  (619) 
0.8812

>  <Gold.Protein.RotatedAtoms>  (619) 


>  <Gold.Protein.RotatedTorsions>  (619) 


>  <Gold.Protein.RotatedWaterAtoms>  (619) 


>  <Gold.Version>  (619) 
5.3.0

>  <PLP.Chemscore.CHOScore>  (619) 


>  <PLP.Chemscore.Hbond>  (619) 


>  <PLP.Chemscore.Internal.Correction>  (619) 


>  <PLP.Chemscore.Metal>  (619) 


>  <PLP.Fitness>  (619) 


>  <PLP.PLP>  (619) 


>  <PLP.ligand.clash>  (619) 


>  <PLP.ligand.torsion>  (619) 


>  <PLP.part.buried>  (619) 


>  <PLP.part.hbond>  (619) 


>  <PLP.part.metal>  (619) 


>  <PLP.part.nonpolar>  (619) 


>  <PLP.part.repulsive>  (619) 


>  <Version>  (619) 


$$$$
3619|Compound_2199|Compounds_3D_F|sdf|651|dock1|1
     RDKit          3D

 21 22  0  0  0  0  0  0  0  0999 V2000
   -8.6813  -16.3525   11.6987 N   0  0  0  0  0  0  0  0  0  0  0  0
   -8.7869  -15.0296   11.9352 C   0  0  0  0  0  0  0  0  0  0  0  0
   -9.8820  -14.5079   11.9865 O   0  0  0  0  0  0  0  0  0  0  0  0
   -7.5646  -14.2127   12.1326 C   0  0  0  0  0  0  0  0  0  0  0  0
   -7.6284  -12.8841   12.1120 N   0  0  0  0  0  0  0  0  0  0  0  0
   -6.5396  -12.1532   12.2886 C   0  0  0  0  0  0  0  0  0  0  0  0
   -6.6701  -10.3964   12.2525 S   0  0  0  0  0  0  0  0  0  0  0  0
   -8.2924  -10.2169   11.4702 C   0  0  0  0  0  0  0  0  0  0  0  0
   -5.3515  -12.7083   12.4919 N   0  0  0  0  0  0  0  0  0  0  0  0
   -5.2117  -14.0213   12.5263 C   0  0  0  0  0  0  0  0  0  0  0  0
   -6.3296  -14.8274   12.3502 C   0  0  0  0  0  0  0  0  0  0  0  0
   -6.1792  -16.7121   12.3902 Br  0  0  0  0  0  0  0  0  0  0  0  0
   -9.8254  -17.1180   11.5087 C   0  0  0  0  0  0  0  0  0  0  0  0
  -10.9581  -17.1439   12.1969 N   0  0  0  0  0  0  0  0  0  0  0  0
  -11.9103  -17.9093   11.8839 N   0  0  0  0  0  0  0  0  0  0  0  0
  -11.8396  -18.7306   10.8547 C   0  0  0  0  0  0  0  0  0  0  0  0
  -10.1957  -18.3455   10.2594 S   0  0  0  0  0  0  0  0  0  0  0  0
  -12.8566  -19.7104   10.3263 C   0  0  0  0  0  0  0  0  0  0  0  0
  -13.9922  -19.0155    9.8944 F   0  0  0  0  0  0  0  0  0  0  0  0
  -12.3072  -20.4192    9.2529 F   0  0  0  0  0  0  0  0  0  0  0  0
  -13.2139  -20.6042   11.3411 F   0  0  0  0  0  0  0  0  0  0  0  0
  1  2  1  0
  1 13  1  0
  2  3  2  0
  2  4  1  0
  4  5  2  0
  4 11  1  0
  5  6  1  0
  6  7  1  0
  6  9  2  0
  7  8  1  0
  9 10  1  0
 10 11  2  0
 11 12  1  0
 13 14  2  0
 13 17  1  0
 14 15  1  0
 15 16  2  0
 16 17  1  0
 16 18  1  0
 18 19  1  0
 18 20  1  0
 18 21  1  0
M  END
>  <Gold.Gold.Protein.RotatedWaterAtoms>  (620) 


>  <Gold.Id.Protein>  (620) 


>  <Gold.PLP.Chemscore.CHOScore>  (620) 
1.0000

>  <Gold.PLP.Chemscore.Hbond>  (620) 
0.4645

>  <Gold.PLP.Chemscore.Internal.Correction>  (620) 
0.0178

>  <Gold.PLP.Chemscore.Metal>  (620) 
0.0000

>  <Gold.PLP.Fitness>  (620) 
57.3505

>  <Gold.PLP.PLP>  (620) 
-54.3715

>  <Gold.PLP.ligand.clash>  (620) 
0.0000

>  <Gold.PLP.ligand.torsion>  (620) 
0.7162

>  <Gold.PLP.part.buried>  (620) 
-6.4341

>  <Gold.PLP.part.hbond>  (620) 
-2.7800

>  <Gold.PLP.part.metal>  (620) 
0.0000

>  <Gold.PLP.part.nonpolar>  (620) 
-44.8674

>  <Gold.PLP.part.repulsive>  (620) 
0.7033

>  <Gold.Protein.RotatedAtoms>  (620) 


>  <Gold.Protein.RotatedTorsions>  (620) 


>  <Gold.Protein.RotatedWaterAtoms>  (620) 


>  <Gold.Version>  (620) 
5.3.0

>  <PLP.Chemscore.CHOScore>  (620) 


>  <PLP.Chemscore.Hbond>  (620) 


>  <PLP.Chemscore.Internal.Correction>  (620) 


>  <PLP.Chemscore.Metal>  (620) 


>  <PLP.Fitness>  (620) 


>  <PLP.PLP>  (620) 


>  <PLP.ligand.clash>  (620) 


>  <PLP.ligand.torsion>  (620) 


>  <PLP.part.buried>  (620) 


>  <PLP.part.hbond>  (620) 


>  <PLP.part.metal>  (620) 


>  <PLP.part.nonpolar>  (620) 


>  <PLP.part.repulsive>  (620) 


>  <Version>  (620) 


$$$$
3620|Compound_2199|Compounds_3D_F|sdf|651|dock2|1
     RDKit          3D

 21 22  0  0  0  0  0  0  0  0999 V2000
   -8.6163  -16.3311   11.6638 N   0  0  0  0  0  0  0  0  0  0  0  0
   -8.7157  -15.0196   11.9590 C   0  0  0  0  0  0  0  0  0  0  0  0
   -9.8092  -14.5047   12.0739 O   0  0  0  0  0  0  0  0  0  0  0  0
   -7.4885  -14.2069   12.1433 C   0  0  0  0  0  0  0  0  0  0  0  0
   -7.5497  -12.8780   12.1341 N   0  0  0  0  0  0  0  0  0  0  0  0
   -6.4566  -12.1508   12.2990 C   0  0  0  0  0  0  0  0  0  0  0  0
   -6.5836  -10.3935   12.2789 S   0  0  0  0  0  0  0  0  0  0  0  0
   -8.2438  -10.2057   11.5828 C   0  0  0  0  0  0  0  0  0  0  0  0
   -5.2666  -12.7100   12.4789 N   0  0  0  0  0  0  0  0  0  0  0  0
   -5.1293  -14.0236   12.5006 C   0  0  0  0  0  0  0  0  0  0  0  0
   -6.2516  -14.8259   12.3361 C   0  0  0  0  0  0  0  0  0  0  0  0
   -6.1049  -16.7111   12.3589 Br  0  0  0  0  0  0  0  0  0  0  0  0
   -9.7651  -17.0925   11.4860 C   0  0  0  0  0  0  0  0  0  0  0  0
  -10.8813  -17.1313   12.2001 N   0  0  0  0  0  0  0  0  0  0  0  0
  -11.8412  -17.8903   11.8950 N   0  0  0  0  0  0  0  0  0  0  0  0
  -11.7954  -18.6916   10.8488 C   0  0  0  0  0  0  0  0  0  0  0  0
  -10.1656  -18.2955   10.2225 S   0  0  0  0  0  0  0  0  0  0  0  0
  -12.8252  -19.6607   10.3257 C   0  0  0  0  0  0  0  0  0  0  0  0
  -13.9829  -18.9610    9.9661 F   0  0  0  0  0  0  0  0  0  0  0  0
  -12.3143  -20.3243    9.2054 F   0  0  0  0  0  0  0  0  0  0  0  0
  -13.1340  -20.5946   11.3201 F   0  0  0  0  0  0  0  0  0  0  0  0
  1  2  1  0
  1 13  1  0
  2  3  2  0
  2  4  1  0
  4  5  2  0
  4 11  1  0
  5  6  1  0
  6  7  1  0
  6  9  2  0
  7  8  1  0
  9 10  1  0
 10 11  2  0
 11 12  1  0
 13 14  2  0
 13 17  1  0
 14 15  1  0
 15 16  2  0
 16 17  1  0
 16 18  1  0
 18 19  1  0
 18 20  1  0
 18 21  1  0
M  END
>  <Gold.Gold.Protein.RotatedWaterAtoms>  (621) 


>  <Gold.Id.Protein>  (621) 


>  <Gold.PLP.Chemscore.CHOScore>  (621) 
1.0000

>  <Gold.PLP.Chemscore.Hbond>  (621) 
0.0835

>  <Gold.PLP.Chemscore.Internal.Correction>  (621) 
0.0178

>  <Gold.PLP.Chemscore.Metal>  (621) 
0.0000

>  <Gold.PLP.Fitness>  (621) 
56.5573

>  <Gold.PLP.PLP>  (621) 
-54.6149

>  <Gold.PLP.ligand.clash>  (621) 
0.0000

>  <Gold.PLP.ligand.torsion>  (621) 
0.6630

>  <Gold.PLP.part.buried>  (621) 
-7.4205

>  <Gold.PLP.part.hbond>  (621) 
-3.1616

>  <Gold.PLP.part.metal>  (621) 
0.0000

>  <Gold.PLP.part.nonpolar>  (621) 
-44.4120

>  <Gold.PLP.part.repulsive>  (621) 
0.7065

>  <Gold.Protein.RotatedAtoms>  (621) 


>  <Gold.Protein.RotatedTorsions>  (621) 


>  <Gold.Protein.RotatedWaterAtoms>  (621) 


>  <Gold.Version>  (621) 
5.3.0

>  <PLP.Chemscore.CHOScore>  (621) 


>  <PLP.Chemscore.Hbond>  (621) 


>  <PLP.Chemscore.Internal.Correction>  (621) 


>  <PLP.Chemscore.Metal>  (621) 


>  <PLP.Fitness>  (621) 


>  <PLP.PLP>  (621) 


>  <PLP.ligand.clash>  (621) 


>  <PLP.ligand.torsion>  (621) 


>  <PLP.part.buried>  (621) 


>  <PLP.part.hbond>  (621) 


>  <PLP.part.metal>  (621) 


>  <PLP.part.nonpolar>  (621) 


>  <PLP.part.repulsive>  (621) 


>  <Version>  (621) 


$$$$
3621|Compound_2199|Compounds_3D_F|sdf|651|dock3|1
     RDKit          3D

 21 22  0  0  0  0  0  0  0  0999 V2000
   -9.3303  -15.7638   12.4982 N   0  0  0  0  0  0  0  0  0  0  0  0
   -8.6691  -15.0652   11.5538 C   0  0  0  0  0  0  0  0  0  0  0  0
   -8.9592  -15.2029   10.3828 O   0  0  0  0  0  0  0  0  0  0  0  0
   -7.5879  -14.1287   11.9464 C   0  0  0  0  0  0  0  0  0  0  0  0
   -7.7562  -12.8142   11.8298 N   0  0  0  0  0  0  0  0  0  0  0  0
   -6.7935  -11.9768   12.1800 C   0  0  0  0  0  0  0  0  0  0  0  0
   -7.0590  -10.2434   12.0078 S   0  0  0  0  0  0  0  0  0  0  0  0
   -8.8161  -10.2355   11.5734 C   0  0  0  0  0  0  0  0  0  0  0  0
   -5.6326  -12.4078   12.6573 N   0  0  0  0  0  0  0  0  0  0  0  0
   -5.3945  -13.6989   12.8020 C   0  0  0  0  0  0  0  0  0  0  0  0
   -6.3795  -14.6139   12.4510 C   0  0  0  0  0  0  0  0  0  0  0  0
   -6.0847  -16.4724   12.6392 Br  0  0  0  0  0  0  0  0  0  0  0  0
  -10.3401  -16.6452   12.1313 C   0  0  0  0  0  0  0  0  0  0  0  0
  -11.5357  -16.8432   12.6685 N   0  0  0  0  0  0  0  0  0  0  0  0
  -12.3417  -17.6950   12.2042 N   0  0  0  0  0  0  0  0  0  0  0  0
  -12.0468  -18.4408   11.1575 C   0  0  0  0  0  0  0  0  0  0  0  0
  -10.4030  -17.8323   10.7930 S   0  0  0  0  0  0  0  0  0  0  0  0
  -12.8641  -19.4999   10.4622 C   0  0  0  0  0  0  0  0  0  0  0  0
  -13.9332  -18.8965    9.7898 F   0  0  0  0  0  0  0  0  0  0  0  0
  -12.0596  -20.1810    9.5428 F   0  0  0  0  0  0  0  0  0  0  0  0
  -13.3581  -20.4037   11.4086 F   0  0  0  0  0  0  0  0  0  0  0  0
  1  2  1  0
  1 13  1  0
  2  3  2  0
  2  4  1  0
  4  5  2  0
  4 11  1  0
  5  6  1  0
  6  7  1  0
  6  9  2  0
  7  8  1  0
  9 10  1  0
 10 11  2  0
 11 12  1  0
 13 14  2  0
 13 17  1  0
 14 15  1  0
 15 16  2  0
 16 17  1  0
 16 18  1  0
 18 19  1  0
 18 20  1  0
 18 21  1  0
M  END
>  <Gold.Gold.Protein.RotatedWaterAtoms>  (622) 


>  <Gold.Id.Protein>  (622) 


>  <Gold.PLP.Chemscore.CHOScore>  (622) 
1.0000

>  <Gold.PLP.Chemscore.Hbond>  (622) 
2.3053

>  <Gold.PLP.Chemscore.Internal.Correction>  (622) 
0.0132

>  <Gold.PLP.Chemscore.Metal>  (622) 
0.0000

>  <Gold.PLP.Fitness>  (622) 
55.0296

>  <Gold.PLP.PLP>  (622) 
-49.1255

>  <Gold.PLP.ligand.clash>  (622) 
0.0000

>  <Gold.PLP.ligand.torsion>  (622) 
2.0125

>  <Gold.PLP.part.buried>  (622) 
2.4468

>  <Gold.PLP.part.hbond>  (622) 
-7.1389

>  <Gold.PLP.part.metal>  (622) 
0.0000

>  <Gold.PLP.part.nonpolar>  (622) 
-44.7994

>  <Gold.PLP.part.repulsive>  (622) 
0.9240

>  <Gold.Protein.RotatedAtoms>  (622) 


>  <Gold.Protein.RotatedTorsions>  (622) 


>  <Gold.Protein.RotatedWaterAtoms>  (622) 


>  <Gold.Version>  (622) 
5.3.0

>  <PLP.Chemscore.CHOScore>  (622) 


>  <PLP.Chemscore.Hbond>  (622) 


>  <PLP.Chemscore.Internal.Correction>  (622) 


>  <PLP.Chemscore.Metal>  (622) 


>  <PLP.Fitness>  (622) 


>  <PLP.PLP>  (622) 


>  <PLP.ligand.clash>  (622) 


>  <PLP.ligand.torsion>  (622) 


>  <PLP.part.buried>  (622) 


>  <PLP.part.hbond>  (622) 


>  <PLP.part.metal>  (622) 


>  <PLP.part.nonpolar>  (622) 


>  <PLP.part.repulsive>  (622) 


>  <Version>  (622) 


$$$$
3622|Compound_2203|Compounds_3D_F|sdf|652|dock1|1
     RDKit          3D

 21 22  0  0  0  0  0  0  0  0999 V2000
   -8.4820  -16.6793   10.7329 N   0  0  0  0  0  0  0  0  0  0  0  0
   -8.7684  -15.7174   11.6328 C   0  0  0  0  0  0  0  0  0  0  0  0
   -9.8457  -15.7144   12.1971 O   0  0  0  0  0  0  0  0  0  0  0  0
   -7.7758  -14.6709   11.9317 C   0  0  0  0  0  0  0  0  0  0  0  0
   -6.4644  -15.0149   12.3064 C   0  0  0  0  0  0  0  0  0  0  0  0
   -6.0014  -16.7112   12.4203 S   0  0  0  0  0  0  0  0  0  0  0  0
   -4.2080  -16.5609   12.2242 C   0  0  0  0  0  0  0  0  0  0  0  0
   -5.5746  -14.0689   12.5740 N   0  0  0  0  0  0  0  0  0  0  0  0
   -5.8805  -12.7890   12.5005 C   0  0  0  0  0  0  0  0  0  0  0  0
   -7.1500  -12.3731   12.1389 C   0  0  0  0  0  0  0  0  0  0  0  0
   -8.1170  -13.3166   11.8434 C   0  0  0  0  0  0  0  0  0  0  0  0
   -9.4165  -17.6611   10.4473 C   0  0  0  0  0  0  0  0  0  0  0  0
  -10.6434  -17.4477   10.0519 N   0  0  0  0  0  0  0  0  0  0  0  0
  -11.2525  -18.6530    9.8732 C   0  0  0  0  0  0  0  0  0  0  0  0
  -10.3394  -19.6146   10.1789 C   0  0  0  0  0  0  0  0  0  0  0  0
   -9.2042  -18.9847   10.5282 O   0  0  0  0  0  0  0  0  0  0  0  0
  -12.6403  -18.8741    9.4319 C   0  0  0  0  0  0  0  0  0  0  0  0
  -13.3953  -17.9301    9.3061 O   0  0  0  0  0  0  0  0  0  0  0  0
  -13.0722  -20.1227    9.1675 O   0  0  0  0  0  0  0  0  0  0  0  0
  -14.4410  -20.2625    8.7032 C   0  0  0  0  0  0  0  0  0  0  0  0
  -14.6151  -21.6245    8.0295 C   0  0  0  0  0  0  0  0  0  0  0  0
  1  2  1  0
  1 12  1  0
  2  3  2  0
  2  4  1  0
  4  5  2  0
  4 11  1  0
  5  6  1  0
  5  8  1  0
  6  7  1  0
  8  9  2  0
  9 10  1  0
 10 11  2  0
 12 13  2  0
 12 16  1  0
 13 14  1  0
 14 15  2  0
 14 17  1  0
 15 16  1  0
 17 18  2  0
 17 19  1  0
 19 20  1  0
 20 21  1  0
M  END
>  <Gold.Gold.Protein.RotatedWaterAtoms>  (623) 


>  <Gold.Id.Protein>  (623) 


>  <Gold.PLP.Chemscore.CHOScore>  (623) 
0.0000

>  <Gold.PLP.Chemscore.Hbond>  (623) 
1.0000

>  <Gold.PLP.Chemscore.Internal.Correction>  (623) 
1.2940

>  <Gold.PLP.Chemscore.Metal>  (623) 
0.0000

>  <Gold.PLP.Fitness>  (623) 
53.9138

>  <Gold.PLP.PLP>  (623) 
-53.3997

>  <Gold.PLP.ligand.clash>  (623) 
0.0000

>  <Gold.PLP.ligand.torsion>  (623) 
1.8900

>  <Gold.PLP.part.buried>  (623) 
-10.3034

>  <Gold.PLP.part.hbond>  (623) 
-1.5941

>  <Gold.PLP.part.metal>  (623) 
0.0000

>  <Gold.PLP.part.nonpolar>  (623) 
-41.3092

>  <Gold.PLP.part.repulsive>  (623) 
0.4159

>  <Gold.Protein.RotatedAtoms>  (623) 


>  <Gold.Protein.RotatedTorsions>  (623) 


>  <Gold.Protein.RotatedWaterAtoms>  (623) 


>  <Gold.Version>  (623) 
5.3.0

>  <PLP.Chemscore.CHOScore>  (623) 


>  <PLP.Chemscore.Hbond>  (623) 


>  <PLP.Chemscore.Internal.Correction>  (623) 


>  <PLP.Chemscore.Metal>  (623) 


>  <PLP.Fitness>  (623) 


>  <PLP.PLP>  (623) 


>  <PLP.ligand.clash>  (623) 


>  <PLP.ligand.torsion>  (623) 


>  <PLP.part.buried>  (623) 


>  <PLP.part.hbond>  (623) 


>  <PLP.part.metal>  (623) 


>  <PLP.part.nonpolar>  (623) 


>  <PLP.part.repulsive>  (623) 


>  <Version>  (623) 


$$$$
3623|Compound_2203|Compounds_3D_F|sdf|652|dock2|1
     RDKit          3D

 21 22  0  0  0  0  0  0  0  0999 V2000
   -8.1421  -16.1879   10.8956 N   0  0  0  0  0  0  0  0  0  0  0  0
   -8.5011  -15.1381   11.6611 C   0  0  0  0  0  0  0  0  0  0  0  0
   -9.6320  -15.0664   12.1027 O   0  0  0  0  0  0  0  0  0  0  0  0
   -7.5229  -14.0787   11.9621 C   0  0  0  0  0  0  0  0  0  0  0  0
   -6.2667  -14.3991   12.5078 C   0  0  0  0  0  0  0  0  0  0  0  0
   -5.8562  -16.0810   12.8357 S   0  0  0  0  0  0  0  0  0  0  0  0
   -4.3087  -16.2134   11.9059 C   0  0  0  0  0  0  0  0  0  0  0  0
   -5.3895  -13.4417   12.7765 N   0  0  0  0  0  0  0  0  0  0  0  0
   -5.6573  -12.1719   12.5461 C   0  0  0  0  0  0  0  0  0  0  0  0
   -6.8716  -11.7791   12.0108 C   0  0  0  0  0  0  0  0  0  0  0  0
   -7.8225  -12.7359   11.7059 C   0  0  0  0  0  0  0  0  0  0  0  0
   -9.0626  -17.1821   10.6078 C   0  0  0  0  0  0  0  0  0  0  0  0
  -10.2700  -16.9872   10.1479 N   0  0  0  0  0  0  0  0  0  0  0  0
  -10.8704  -18.2000    9.9909 C   0  0  0  0  0  0  0  0  0  0  0  0
   -9.9724  -19.1467   10.3774 C   0  0  0  0  0  0  0  0  0  0  0  0
   -8.8544  -18.5009   10.7525 O   0  0  0  0  0  0  0  0  0  0  0  0
  -12.2364  -18.4414    9.4957 C   0  0  0  0  0  0  0  0  0  0  0  0
  -12.9501  -17.5031    9.2006 O   0  0  0  0  0  0  0  0  0  0  0  0
  -12.6940  -19.7024    9.3695 O   0  0  0  0  0  0  0  0  0  0  0  0
  -14.0545  -19.8650    8.8886 C   0  0  0  0  0  0  0  0  0  0  0  0
  -14.3175  -21.3419    8.5902 C   0  0  0  0  0  0  0  0  0  0  0  0
  1  2  1  0
  1 12  1  0
  2  3  2  0
  2  4  1  0
  4  5  2  0
  4 11  1  0
  5  6  1  0
  5  8  1  0
  6  7  1  0
  8  9  2  0
  9 10  1  0
 10 11  2  0
 12 13  2  0
 12 16  1  0
 13 14  1  0
 14 15  2  0
 14 17  1  0
 15 16  1  0
 17 18  2  0
 17 19  1  0
 19 20  1  0
 20 21  1  0
M  END
>  <Gold.Gold.Protein.RotatedWaterAtoms>  (624) 


>  <Gold.Id.Protein>  (624) 


>  <Gold.PLP.Chemscore.CHOScore>  (624) 
0.8201

>  <Gold.PLP.Chemscore.Hbond>  (624) 
0.8320

>  <Gold.PLP.Chemscore.Internal.Correction>  (624) 
1.0570

>  <Gold.PLP.Chemscore.Metal>  (624) 
0.0000

>  <Gold.PLP.Fitness>  (624) 
56.5340

>  <Gold.PLP.PLP>  (624) 
-53.4223

>  <Gold.PLP.ligand.clash>  (624) 
0.0000

>  <Gold.PLP.ligand.torsion>  (624) 
1.4509

>  <Gold.PLP.part.buried>  (624) 
-9.6869

>  <Gold.PLP.part.hbond>  (624) 
-2.5932

>  <Gold.PLP.part.metal>  (624) 
0.0000

>  <Gold.PLP.part.nonpolar>  (624) 
-41.8985

>  <Gold.PLP.part.repulsive>  (624) 
0.4887

>  <Gold.Protein.RotatedAtoms>  (624) 


>  <Gold.Protein.RotatedTorsions>  (624) 


>  <Gold.Protein.RotatedWaterAtoms>  (624) 


>  <Gold.Version>  (624) 
5.3.0

>  <PLP.Chemscore.CHOScore>  (624) 


>  <PLP.Chemscore.Hbond>  (624) 


>  <PLP.Chemscore.Internal.Correction>  (624) 


>  <PLP.Chemscore.Metal>  (624) 


>  <PLP.Fitness>  (624) 


>  <PLP.PLP>  (624) 


>  <PLP.ligand.clash>  (624) 


>  <PLP.ligand.torsion>  (624) 


>  <PLP.part.buried>  (624) 


>  <PLP.part.hbond>  (624) 


>  <PLP.part.metal>  (624) 


>  <PLP.part.nonpolar>  (624) 


>  <PLP.part.repulsive>  (624) 


>  <Version>  (624) 


$$$$
3624|Compound_2203|Compounds_3D_F|sdf|652|dock3|1
     RDKit          3D

 21 22  0  0  0  0  0  0  0  0999 V2000
   -8.1183  -16.0891   10.9673 N   0  0  0  0  0  0  0  0  0  0  0  0
   -8.4385  -15.0246   11.7299 C   0  0  0  0  0  0  0  0  0  0  0  0
   -9.5605  -14.9201   12.1872 O   0  0  0  0  0  0  0  0  0  0  0  0
   -7.4285  -13.9891   12.0085 C   0  0  0  0  0  0  0  0  0  0  0  0
   -6.1732  -14.3385   12.5382 C   0  0  0  0  0  0  0  0  0  0  0  0
   -5.8020  -16.0282   12.8727 S   0  0  0  0  0  0  0  0  0  0  0  0
   -4.2868  -16.2152   11.8999 C   0  0  0  0  0  0  0  0  0  0  0  0
   -5.2674  -13.4025   12.7869 N   0  0  0  0  0  0  0  0  0  0  0  0
   -5.5054  -12.1278   12.5508 C   0  0  0  0  0  0  0  0  0  0  0  0
   -6.7169  -11.7071   12.0305 C   0  0  0  0  0  0  0  0  0  0  0  0
   -7.6968  -12.6408   11.7467 C   0  0  0  0  0  0  0  0  0  0  0  0
   -9.0686  -17.0609   10.7005 C   0  0  0  0  0  0  0  0  0  0  0  0
  -10.1366  -17.2935   11.4163 N   0  0  0  0  0  0  0  0  0  0  0  0
  -10.8238  -18.3194   10.8410 C   0  0  0  0  0  0  0  0  0  0  0  0
  -10.1246  -18.7041    9.7387 C   0  0  0  0  0  0  0  0  0  0  0  0
   -9.0413  -17.9114    9.6615 O   0  0  0  0  0  0  0  0  0  0  0  0
  -12.0874  -18.9035   11.3224 C   0  0  0  0  0  0  0  0  0  0  0  0
  -12.3980  -18.7988   12.4926 O   0  0  0  0  0  0  0  0  0  0  0  0
  -12.8988  -19.5533   10.4651 O   0  0  0  0  0  0  0  0  0  0  0  0
  -14.2832  -19.7244   10.8687 C   0  0  0  0  0  0  0  0  0  0  0  0
  -15.1015  -20.2362    9.6821 C   0  0  0  0  0  0  0  0  0  0  0  0
  1  2  1  0
  1 12  1  0
  2  3  2  0
  2  4  1  0
  4  5  2  0
  4 11  1  0
  5  6  1  0
  5  8  1  0
  6  7  1  0
  8  9  2  0
  9 10  1  0
 10 11  2  0
 12 13  2  0
 12 16  1  0
 13 14  1  0
 14 15  2  0
 14 17  1  0
 15 16  1  0
 17 18  2  0
 17 19  1  0
 19 20  1  0
 20 21  1  0
M  END
>  <Gold.Gold.Protein.RotatedWaterAtoms>  (625) 


>  <Gold.Id.Protein>  (625) 


>  <Gold.PLP.Chemscore.CHOScore>  (625) 
1.0000

>  <Gold.PLP.Chemscore.Hbond>  (625) 
1.5640

>  <Gold.PLP.Chemscore.Internal.Correction>  (625) 
1.0570

>  <Gold.PLP.Chemscore.Metal>  (625) 
0.0000

>  <Gold.PLP.Fitness>  (625) 
57.5778

>  <Gold.PLP.PLP>  (625) 
-52.0803

>  <Gold.PLP.ligand.clash>  (625) 
0.0036

>  <Gold.PLP.ligand.torsion>  (625) 
1.6240

>  <Gold.PLP.part.buried>  (625) 
-10.2428

>  <Gold.PLP.part.hbond>  (625) 
-2.9646

>  <Gold.PLP.part.metal>  (625) 
0.0000

>  <Gold.PLP.part.nonpolar>  (625) 
-40.2803

>  <Gold.PLP.part.repulsive>  (625) 
0.5398

>  <Gold.Protein.RotatedAtoms>  (625) 


>  <Gold.Protein.RotatedTorsions>  (625) 


>  <Gold.Protein.RotatedWaterAtoms>  (625) 


>  <Gold.Version>  (625) 
5.3.0

>  <PLP.Chemscore.CHOScore>  (625) 


>  <PLP.Chemscore.Hbond>  (625) 


>  <PLP.Chemscore.Internal.Correction>  (625) 


>  <PLP.Chemscore.Metal>  (625) 


>  <PLP.Fitness>  (625) 


>  <PLP.PLP>  (625) 


>  <PLP.ligand.clash>  (625) 


>  <PLP.ligand.torsion>  (625) 


>  <PLP.part.buried>  (625) 


>  <PLP.part.hbond>  (625) 


>  <PLP.part.metal>  (625) 


>  <PLP.part.nonpolar>  (625) 


>  <PLP.part.repulsive>  (625) 


>  <Version>  (625) 


$$$$
3625|Compound_2204|Compounds_3D_F|sdf|653|dock1|1
     RDKit          3D

 28 30  0  0  0  0  0  0  0  0999 V2000
   -9.4870  -20.3435    9.0289 O   0  0  0  0  0  0  0  0  0  0  0  0
   -9.9140  -19.4338    9.9343 C   0  0  0  0  0  0  0  0  0  0  0  0
  -11.2541  -19.4465   10.3995 C   0  0  0  0  0  0  0  0  0  0  0  0
  -12.1391  -20.3438    9.9698 N   0  0  0  0  0  0  0  0  0  0  0  0
  -13.3697  -20.3144   10.4314 C   0  0  0  0  0  0  0  0  0  0  0  0
  -13.7566  -19.3531   11.3654 C   0  0  0  0  0  0  0  0  0  0  0  0
  -12.8986  -18.4570   11.8039 N   0  0  0  0  0  0  0  0  0  0  0  0
  -11.6433  -18.4682   11.3481 C   0  0  0  0  0  0  0  0  0  0  0  0
  -10.7344  -17.5776   11.7649 N   0  0  0  0  0  0  0  0  0  0  0  0
   -9.5014  -17.6122   11.2984 C   0  0  0  0  0  0  0  0  0  0  0  0
   -9.0919  -18.5150   10.4105 N   0  0  0  0  0  0  0  0  0  0  0  0
   -8.5911  -16.6717   11.7557 N   0  0  0  0  0  0  0  0  0  0  0  0
   -8.4607  -15.4923   11.1166 C   0  0  0  0  0  0  0  0  0  0  0  0
   -9.1425  -15.2532   10.1377 O   0  0  0  0  0  0  0  0  0  0  0  0
   -7.4933  -14.4934   11.6029 C   0  0  0  0  0  0  0  0  0  0  0  0
   -6.1466  -14.8411   11.8071 C   0  0  0  0  0  0  0  0  0  0  0  0
   -5.6067  -16.4859   11.4795 S   0  0  0  0  0  0  0  0  0  0  0  0
   -3.9604  -16.4319   12.2307 C   0  0  0  0  0  0  0  0  0  0  0  0
   -5.2806  -13.9381   12.2439 N   0  0  0  0  0  0  0  0  0  0  0  0
   -5.6434  -12.6971   12.5010 C   0  0  0  0  0  0  0  0  0  0  0  0
   -6.9514  -12.2799   12.3239 C   0  0  0  0  0  0  0  0  0  0  0  0
   -7.8974  -13.1783   11.8640 C   0  0  0  0  0  0  0  0  0  0  0  0
  -14.3724  -21.3291    9.9465 C   0  0  0  0  0  0  0  0  0  0  0  0
  -14.1158  -22.5890   10.5707 O   0  0  0  0  0  0  0  0  0  0  0  0
  -14.2547  -21.4787    8.4290 C   0  0  0  0  0  0  0  0  0  0  0  0
  -14.7559  -20.3005    7.7939 O   0  0  0  0  0  0  0  0  0  0  0  0
  -15.0670  -22.6908    7.9708 C   0  0  0  0  0  0  0  0  0  0  0  0
  -16.1288  -22.2574    7.1170 O   0  0  0  0  0  0  0  0  0  0  0  0
  1  2  1  0
  2  3  2  0
  2 11  1  0
  3  4  1  0
  3  8  1  0
  4  5  2  0
  5  6  1  0
  5 23  1  0
  6  7  2  0
  7  8  1  0
  8  9  2  0
  9 10  1  0
 10 11  2  0
 10 12  1  0
 12 13  1  0
 13 14  2  0
 13 15  1  0
 15 16  2  0
 15 22  1  0
 16 17  1  0
 16 19  1  0
 17 18  1  0
 19 20  2  0
 20 21  1  0
 21 22  2  0
 23 24  1  0
 23 25  1  0
 25 26  1  0
 25 27  1  0
 27 28  1  0
M  END
>  <Gold.Gold.Protein.RotatedWaterAtoms>  (626) 


>  <Gold.Id.Protein>  (626) 


>  <Gold.PLP.Chemscore.CHOScore>  (626) 
1.1523

>  <Gold.PLP.Chemscore.Hbond>  (626) 
3.4320

>  <Gold.PLP.Chemscore.Internal.Correction>  (626) 
1.9281

>  <Gold.PLP.Chemscore.Metal>  (626) 
0.0000

>  <Gold.PLP.Fitness>  (626) 
67.2981

>  <Gold.PLP.PLP>  (626) 
-58.4146

>  <Gold.PLP.ligand.clash>  (626) 
0.6171

>  <Gold.PLP.ligand.torsion>  (626) 
3.0903

>  <Gold.PLP.part.buried>  (626) 
-9.1162

>  <Gold.PLP.part.hbond>  (626) 
-6.4375

>  <Gold.PLP.part.metal>  (626) 
0.0000

>  <Gold.PLP.part.nonpolar>  (626) 
-42.9216

>  <Gold.PLP.part.repulsive>  (626) 
0.8901

>  <Gold.Protein.RotatedAtoms>  (626) 


>  <Gold.Protein.RotatedTorsions>  (626) 


>  <Gold.Protein.RotatedWaterAtoms>  (626) 


>  <Gold.Version>  (626) 
5.3.0

>  <PLP.Chemscore.CHOScore>  (626) 


>  <PLP.Chemscore.Hbond>  (626) 


>  <PLP.Chemscore.Internal.Correction>  (626) 


>  <PLP.Chemscore.Metal>  (626) 


>  <PLP.Fitness>  (626) 


>  <PLP.PLP>  (626) 


>  <PLP.ligand.clash>  (626) 


>  <PLP.ligand.torsion>  (626) 


>  <PLP.part.buried>  (626) 


>  <PLP.part.hbond>  (626) 


>  <PLP.part.metal>  (626) 


>  <PLP.part.nonpolar>  (626) 


>  <PLP.part.repulsive>  (626) 


>  <Version>  (626) 


$$$$
3626|Compound_2204|Compounds_3D_F|sdf|653|dock2|1
     RDKit          3D

 28 30  0  0  0  0  0  0  0  0999 V2000
   -9.5475  -21.1879    9.6994 O   0  0  0  0  0  0  0  0  0  0  0  0
  -10.1674  -20.0074    9.9266 C   0  0  0  0  0  0  0  0  0  0  0  0
  -11.5218  -19.8147    9.5514 C   0  0  0  0  0  0  0  0  0  0  0  0
  -12.2329  -20.7763    8.9661 N   0  0  0  0  0  0  0  0  0  0  0  0
  -13.4854  -20.5490    8.6375 C   0  0  0  0  0  0  0  0  0  0  0  0
  -14.0754  -19.3113    8.8954 C   0  0  0  0  0  0  0  0  0  0  0  0
  -13.3914  -18.3470    9.4729 N   0  0  0  0  0  0  0  0  0  0  0  0
  -12.1175  -18.5560    9.8149 C   0  0  0  0  0  0  0  0  0  0  0  0
  -11.3813  -17.6059   10.4051 N   0  0  0  0  0  0  0  0  0  0  0  0
  -10.1254  -17.8400   10.7327 C   0  0  0  0  0  0  0  0  0  0  0  0
   -9.5276  -19.0075   10.5076 N   0  0  0  0  0  0  0  0  0  0  0  0
   -9.3981  -16.8291   11.3420 N   0  0  0  0  0  0  0  0  0  0  0  0
   -8.0919  -16.6679   11.0510 C   0  0  0  0  0  0  0  0  0  0  0  0
   -7.5514  -17.4102   10.2529 O   0  0  0  0  0  0  0  0  0  0  0  0
   -7.3195  -15.5938   11.6988 C   0  0  0  0  0  0  0  0  0  0  0  0
   -6.0157  -15.8321   12.1675 C   0  0  0  0  0  0  0  0  0  0  0  0
   -5.2952  -17.4290   11.9804 S   0  0  0  0  0  0  0  0  0  0  0  0
   -3.8172  -16.9974   11.0282 C   0  0  0  0  0  0  0  0  0  0  0  0
   -5.3252  -14.8617   12.7488 N   0  0  0  0  0  0  0  0  0  0  0  0
   -5.8273  -13.6533   12.9084 C   0  0  0  0  0  0  0  0  0  0  0  0
   -7.1039  -13.3426   12.4725 C   0  0  0  0  0  0  0  0  0  0  0  0
   -7.8685  -14.3148   11.8531 C   0  0  0  0  0  0  0  0  0  0  0  0
  -14.2916  -21.6360    7.9753 C   0  0  0  0  0  0  0  0  0  0  0  0
  -15.0387  -21.0819    6.8901 O   0  0  0  0  0  0  0  0  0  0  0  0
  -15.2523  -22.2517    8.9937 C   0  0  0  0  0  0  0  0  0  0  0  0
  -14.5086  -22.7615   10.1026 O   0  0  0  0  0  0  0  0  0  0  0  0
  -16.0331  -23.3903    8.3356 C   0  0  0  0  0  0  0  0  0  0  0  0
  -16.9094  -22.8544    7.3412 O   0  0  0  0  0  0  0  0  0  0  0  0
  1  2  1  0
  2  3  2  0
  2 11  1  0
  3  4  1  0
  3  8  1  0
  4  5  2  0
  5  6  1  0
  5 23  1  0
  6  7  2  0
  7  8  1  0
  8  9  2  0
  9 10  1  0
 10 11  2  0
 10 12  1  0
 12 13  1  0
 13 14  2  0
 13 15  1  0
 15 16  2  0
 15 22  1  0
 16 17  1  0
 16 19  1  0
 17 18  1  0
 19 20  2  0
 20 21  1  0
 21 22  2  0
 23 24  1  0
 23 25  1  0
 25 26  1  0
 25 27  1  0
 27 28  1  0
M  END
>  <Gold.Gold.Protein.RotatedWaterAtoms>  (627) 


>  <Gold.Id.Protein>  (627) 


>  <Gold.PLP.Chemscore.CHOScore>  (627) 
0.6259

>  <Gold.PLP.Chemscore.Hbond>  (627) 
2.9913

>  <Gold.PLP.Chemscore.Internal.Correction>  (627) 
1.9281

>  <Gold.PLP.Chemscore.Metal>  (627) 
0.0000

>  <Gold.PLP.Fitness>  (627) 
67.1085

>  <Gold.PLP.PLP>  (627) 
-57.1483

>  <Gold.PLP.ligand.clash>  (627) 
0.0000

>  <Gold.PLP.ligand.torsion>  (627) 
1.4096

>  <Gold.PLP.part.buried>  (627) 
-8.2356

>  <Gold.PLP.part.hbond>  (627) 
-6.3967

>  <Gold.PLP.part.metal>  (627) 
0.0000

>  <Gold.PLP.part.nonpolar>  (627) 
-44.7320

>  <Gold.PLP.part.repulsive>  (627) 
0.3092

>  <Gold.Protein.RotatedAtoms>  (627) 


>  <Gold.Protein.RotatedTorsions>  (627) 


>  <Gold.Protein.RotatedWaterAtoms>  (627) 


>  <Gold.Version>  (627) 
5.3.0

>  <PLP.Chemscore.CHOScore>  (627) 


>  <PLP.Chemscore.Hbond>  (627) 


>  <PLP.Chemscore.Internal.Correction>  (627) 


>  <PLP.Chemscore.Metal>  (627) 


>  <PLP.Fitness>  (627) 


>  <PLP.PLP>  (627) 


>  <PLP.ligand.clash>  (627) 


>  <PLP.ligand.torsion>  (627) 


>  <PLP.part.buried>  (627) 


>  <PLP.part.hbond>  (627) 


>  <PLP.part.metal>  (627) 


>  <PLP.part.nonpolar>  (627) 


>  <PLP.part.repulsive>  (627) 


>  <Version>  (627) 


$$$$
3627|Compound_2204|Compounds_3D_F|sdf|653|dock3|1
     RDKit          3D

 28 30  0  0  0  0  0  0  0  0999 V2000
   -9.8316  -19.2486    8.6270 O   0  0  0  0  0  0  0  0  0  0  0  0
  -10.2118  -18.6432    9.7752 C   0  0  0  0  0  0  0  0  0  0  0  0
  -11.4552  -18.9547   10.3828 C   0  0  0  0  0  0  0  0  0  0  0  0
  -12.2920  -19.8459    9.8551 N   0  0  0  0  0  0  0  0  0  0  0  0
  -13.4331  -20.1004   10.4563 C   0  0  0  0  0  0  0  0  0  0  0  0
  -13.7752  -19.4462   11.6400 C   0  0  0  0  0  0  0  0  0  0  0  0
  -12.9634  -18.5621   12.1792 N   0  0  0  0  0  0  0  0  0  0  0  0
  -11.7992  -18.2878   11.5851 C   0  0  0  0  0  0  0  0  0  0  0  0
  -10.9401  -17.3967   12.0958 N   0  0  0  0  0  0  0  0  0  0  0  0
   -9.7968  -17.1457   11.4883 C   0  0  0  0  0  0  0  0  0  0  0  0
   -9.4320  -17.7510   10.3607 N   0  0  0  0  0  0  0  0  0  0  0  0
   -8.9357  -16.2158   12.0503 N   0  0  0  0  0  0  0  0  0  0  0  0
   -8.1410  -15.4676   11.2595 C   0  0  0  0  0  0  0  0  0  0  0  0
   -8.1798  -15.6089   10.0517 O   0  0  0  0  0  0  0  0  0  0  0  0
   -7.2261  -14.4798   11.8571 C   0  0  0  0  0  0  0  0  0  0  0  0
   -6.0268  -14.8904   12.4649 C   0  0  0  0  0  0  0  0  0  0  0  0
   -5.6104  -16.6016   12.5145 S   0  0  0  0  0  0  0  0  0  0  0  0
   -4.3829  -16.6651   11.1853 C   0  0  0  0  0  0  0  0  0  0  0  0
   -5.2072  -13.9971   13.0002 N   0  0  0  0  0  0  0  0  0  0  0  0
   -5.4813  -12.7078   12.9846 C   0  0  0  0  0  0  0  0  0  0  0  0
   -6.6425  -12.2273   12.4041 C   0  0  0  0  0  0  0  0  0  0  0  0
   -7.5324  -13.1138   11.8244 C   0  0  0  0  0  0  0  0  0  0  0  0
  -14.3811  -21.1087    9.8606 C   0  0  0  0  0  0  0  0  0  0  0  0
  -14.5007  -22.2287   10.7405 O   0  0  0  0  0  0  0  0  0  0  0  0
  -13.8436  -21.5783    8.5080 C   0  0  0  0  0  0  0  0  0  0  0  0
  -13.8677  -20.4899    7.5819 O   0  0  0  0  0  0  0  0  0  0  0  0
  -14.7160  -22.7179    7.9796 C   0  0  0  0  0  0  0  0  0  0  0  0
  -16.0499  -22.2436    7.7805 O   0  0  0  0  0  0  0  0  0  0  0  0
  1  2  1  0
  2  3  2  0
  2 11  1  0
  3  4  1  0
  3  8  1  0
  4  5  2  0
  5  6  1  0
  5 23  1  0
  6  7  2  0
  7  8  1  0
  8  9  2  0
  9 10  1  0
 10 11  2  0
 10 12  1  0
 12 13  1  0
 13 14  2  0
 13 15  1  0
 15 16  2  0
 15 22  1  0
 16 17  1  0
 16 19  1  0
 17 18  1  0
 19 20  2  0
 20 21  1  0
 21 22  2  0
 23 24  1  0
 23 25  1  0
 25 26  1  0
 25 27  1  0
 27 28  1  0
M  END
>  <Gold.Gold.Protein.RotatedWaterAtoms>  (628) 


>  <Gold.Id.Protein>  (628) 


>  <Gold.PLP.Chemscore.CHOScore>  (628) 
2.2030

>  <Gold.PLP.Chemscore.Hbond>  (628) 
1.1272

>  <Gold.PLP.Chemscore.Internal.Correction>  (628) 
1.6812

>  <Gold.PLP.Chemscore.Metal>  (628) 
0.0000

>  <Gold.PLP.Fitness>  (628) 
62.1933

>  <Gold.PLP.PLP>  (628) 
-54.4632

>  <Gold.PLP.ligand.clash>  (628) 
0.0000

>  <Gold.PLP.ligand.torsion>  (628) 
1.9709

>  <Gold.PLP.part.buried>  (628) 
-3.7606

>  <Gold.PLP.part.hbond>  (628) 
-5.7925

>  <Gold.PLP.part.metal>  (628) 
0.0000

>  <Gold.PLP.part.nonpolar>  (628) 
-46.6191

>  <Gold.PLP.part.repulsive>  (628) 
0.5903

>  <Gold.Protein.RotatedAtoms>  (628) 


>  <Gold.Protein.RotatedTorsions>  (628) 


>  <Gold.Protein.RotatedWaterAtoms>  (628) 


>  <Gold.Version>  (628) 
5.3.0

>  <PLP.Chemscore.CHOScore>  (628) 


>  <PLP.Chemscore.Hbond>  (628) 


>  <PLP.Chemscore.Internal.Correction>  (628) 


>  <PLP.Chemscore.Metal>  (628) 


>  <PLP.Fitness>  (628) 


>  <PLP.PLP>  (628) 


>  <PLP.ligand.clash>  (628) 


>  <PLP.ligand.torsion>  (628) 


>  <PLP.part.buried>  (628) 


>  <PLP.part.hbond>  (628) 


>  <PLP.part.metal>  (628) 


>  <PLP.part.nonpolar>  (628) 


>  <PLP.part.repulsive>  (628) 


>  <Version>  (628) 


$$$$
3628|Compound_2204|Compounds_3D_F|sdf|653|dock4|1
     RDKit          3D

 28 30  0  0  0  0  0  0  0  0999 V2000
   -9.9974  -19.4144    8.5885 O   0  0  0  0  0  0  0  0  0  0  0  0
  -10.2678  -18.8189    9.7725 C   0  0  0  0  0  0  0  0  0  0  0  0
  -11.4375  -19.1526   10.5025 C   0  0  0  0  0  0  0  0  0  0  0  0
  -12.3095  -20.0557   10.0588 N   0  0  0  0  0  0  0  0  0  0  0  0
  -13.3789  -20.3308   10.7723 C   0  0  0  0  0  0  0  0  0  0  0  0
  -13.6085  -19.6859   11.9879 C   0  0  0  0  0  0  0  0  0  0  0  0
  -12.7601  -18.7903   12.4455 N   0  0  0  0  0  0  0  0  0  0  0  0
  -11.6673  -18.4952   11.7368 C   0  0  0  0  0  0  0  0  0  0  0  0
  -10.7748  -17.5917   12.1613 N   0  0  0  0  0  0  0  0  0  0  0  0
   -9.7038  -17.3201   11.4413 C   0  0  0  0  0  0  0  0  0  0  0  0
   -9.4466  -17.9159   10.2794 N   0  0  0  0  0  0  0  0  0  0  0  0
   -8.8047  -16.3780   11.9167 N   0  0  0  0  0  0  0  0  0  0  0  0
   -8.3765  -15.3866   11.1102 C   0  0  0  0  0  0  0  0  0  0  0  0
   -8.7796  -15.3189    9.9643 O   0  0  0  0  0  0  0  0  0  0  0  0
   -7.4211  -14.3858   11.6158 C   0  0  0  0  0  0  0  0  0  0  0  0
   -6.0554  -14.6966   11.7367 C   0  0  0  0  0  0  0  0  0  0  0  0
   -5.4771  -16.2971   11.2802 S   0  0  0  0  0  0  0  0  0  0  0  0
   -5.0370  -16.9493   12.9107 C   0  0  0  0  0  0  0  0  0  0  0  0
   -5.2003  -13.7920   12.1914 N   0  0  0  0  0  0  0  0  0  0  0  0
   -5.5917  -12.5836   12.5438 C   0  0  0  0  0  0  0  0  0  0  0  0
   -6.9197  -12.2037   12.4526 C   0  0  0  0  0  0  0  0  0  0  0  0
   -7.8559  -13.1052   11.9789 C   0  0  0  0  0  0  0  0  0  0  0  0
  -14.3666  -21.3526   10.2719 C   0  0  0  0  0  0  0  0  0  0  0  0
  -14.0738  -22.6243   10.8549 O   0  0  0  0  0  0  0  0  0  0  0  0
  -14.2682  -21.4551    8.7491 C   0  0  0  0  0  0  0  0  0  0  0  0
  -14.6621  -20.2132    8.1616 O   0  0  0  0  0  0  0  0  0  0  0  0
  -15.1893  -22.5702    8.2518 C   0  0  0  0  0  0  0  0  0  0  0  0
  -15.9312  -22.1064    7.1211 O   0  0  0  0  0  0  0  0  0  0  0  0
  1  2  1  0
  2  3  2  0
  2 11  1  0
  3  4  1  0
  3  8  1  0
  4  5  2  0
  5  6  1  0
  5 23  1  0
  6  7  2  0
  7  8  1  0
  8  9  2  0
  9 10  1  0
 10 11  2  0
 10 12  1  0
 12 13  1  0
 13 14  2  0
 13 15  1  0
 15 16  2  0
 15 22  1  0
 16 17  1  0
 16 19  1  0
 17 18  1  0
 19 20  2  0
 20 21  1  0
 21 22  2  0
 23 24  1  0
 23 25  1  0
 25 26  1  0
 25 27  1  0
 27 28  1  0
M  END
>  <Gold.Gold.Protein.RotatedWaterAtoms>  (629) 


>  <Gold.Id.Protein>  (629) 


>  <Gold.PLP.Chemscore.CHOScore>  (629) 
1.4689

>  <Gold.PLP.Chemscore.Hbond>  (629) 
2.8267

>  <Gold.PLP.Chemscore.Internal.Correction>  (629) 
1.6812

>  <Gold.PLP.Chemscore.Metal>  (629) 
0.0000

>  <Gold.PLP.Fitness>  (629) 
65.3381

>  <Gold.PLP.PLP>  (629) 
-57.3738

>  <Gold.PLP.ligand.clash>  (629) 
0.0000

>  <Gold.PLP.ligand.torsion>  (629) 
3.3018

>  <Gold.PLP.part.buried>  (629) 
-6.8921

>  <Gold.PLP.part.hbond>  (629) 
-7.9286

>  <Gold.PLP.part.metal>  (629) 
0.0000

>  <Gold.PLP.part.nonpolar>  (629) 
-43.2785

>  <Gold.PLP.part.repulsive>  (629) 
0.6119

>  <Gold.Protein.RotatedAtoms>  (629) 


>  <Gold.Protein.RotatedTorsions>  (629) 


>  <Gold.Protein.RotatedWaterAtoms>  (629) 


>  <Gold.Version>  (629) 
5.3.0

>  <PLP.Chemscore.CHOScore>  (629) 


>  <PLP.Chemscore.Hbond>  (629) 


>  <PLP.Chemscore.Internal.Correction>  (629) 


>  <PLP.Chemscore.Metal>  (629) 


>  <PLP.Fitness>  (629) 


>  <PLP.PLP>  (629) 


>  <PLP.ligand.clash>  (629) 


>  <PLP.ligand.torsion>  (629) 


>  <PLP.part.buried>  (629) 


>  <PLP.part.hbond>  (629) 


>  <PLP.part.metal>  (629) 


>  <PLP.part.nonpolar>  (629) 


>  <PLP.part.repulsive>  (629) 


>  <Version>  (629) 


$$$$
3629|Compound_2204|Compounds_3D_F|sdf|653|dock5|1
     RDKit          3D

 28 30  0  0  0  0  0  0  0  0999 V2000
  -10.1344  -21.5866   10.8133 O   0  0  0  0  0  0  0  0  0  0  0  0
  -10.4126  -20.2659   10.7237 C   0  0  0  0  0  0  0  0  0  0  0  0
  -11.5907  -19.8146   10.0750 C   0  0  0  0  0  0  0  0  0  0  0  0
  -12.4631  -20.6617    9.5325 N   0  0  0  0  0  0  0  0  0  0  0  0
  -13.5408  -20.1942    8.9423 C   0  0  0  0  0  0  0  0  0  0  0  0
  -13.7783  -18.8209    8.8787 C   0  0  0  0  0  0  0  0  0  0  0  0
  -12.9298  -17.9659    9.4082 N   0  0  0  0  0  0  0  0  0  0  0  0
  -11.8283  -18.4189   10.0123 C   0  0  0  0  0  0  0  0  0  0  0  0
  -10.9361  -17.5881   10.5662 N   0  0  0  0  0  0  0  0  0  0  0  0
   -9.8570  -18.0630   11.1571 C   0  0  0  0  0  0  0  0  0  0  0  0
   -9.5962  -19.3652   11.2424 N   0  0  0  0  0  0  0  0  0  0  0  0
   -8.9582  -17.1686   11.7178 N   0  0  0  0  0  0  0  0  0  0  0  0
   -8.7070  -15.9929   11.1085 C   0  0  0  0  0  0  0  0  0  0  0  0
   -9.2696  -15.7168   10.0657 O   0  0  0  0  0  0  0  0  0  0  0  0
   -7.7519  -15.0430   11.7046 C   0  0  0  0  0  0  0  0  0  0  0  0
   -6.4526  -15.4550   12.0489 C   0  0  0  0  0  0  0  0  0  0  0  0
   -5.9580  -17.1222   11.7662 S   0  0  0  0  0  0  0  0  0  0  0  0
   -4.2994  -17.0854   12.4908 C   0  0  0  0  0  0  0  0  0  0  0  0
   -5.5973  -14.5958   12.5841 N   0  0  0  0  0  0  0  0  0  0  0  0
   -5.9272  -13.3401   12.8121 C   0  0  0  0  0  0  0  0  0  0  0  0
   -7.1877  -12.8606   12.4996 C   0  0  0  0  0  0  0  0  0  0  0  0
   -8.1198  -13.7113   11.9329 C   0  0  0  0  0  0  0  0  0  0  0  0
  -14.5292  -21.1512    8.3281 C   0  0  0  0  0  0  0  0  0  0  0  0
  -15.7285  -21.1624    9.1056 O   0  0  0  0  0  0  0  0  0  0  0  0
  -13.9280  -22.5572    8.2983 C   0  0  0  0  0  0  0  0  0  0  0  0
  -14.7756  -23.4218    7.5388 O   0  0  0  0  0  0  0  0  0  0  0  0
  -13.8033  -23.0897    9.7265 C   0  0  0  0  0  0  0  0  0  0  0  0
  -15.0168  -23.7489   10.0967 O   0  0  0  0  0  0  0  0  0  0  0  0
  1  2  1  0
  2  3  2  0
  2 11  1  0
  3  4  1  0
  3  8  1  0
  4  5  2  0
  5  6  1  0
  5 23  1  0
  6  7  2  0
  7  8  1  0
  8  9  2  0
  9 10  1  0
 10 11  2  0
 10 12  1  0
 12 13  1  0
 13 14  2  0
 13 15  1  0
 15 16  2  0
 15 22  1  0
 16 17  1  0
 16 19  1  0
 17 18  1  0
 19 20  2  0
 20 21  1  0
 21 22  2  0
 23 24  1  0
 23 25  1  0
 25 26  1  0
 25 27  1  0
 27 28  1  0
M  END
>  <Gold.Gold.Protein.RotatedWaterAtoms>  (630) 


>  <Gold.Id.Protein>  (630) 


>  <Gold.PLP.Chemscore.CHOScore>  (630) 
0.2701

>  <Gold.PLP.Chemscore.Hbond>  (630) 
3.0000

>  <Gold.PLP.Chemscore.Internal.Correction>  (630) 
1.6812

>  <Gold.PLP.Chemscore.Metal>  (630) 
0.0000

>  <Gold.PLP.Fitness>  (630) 
63.8118

>  <Gold.PLP.PLP>  (630) 
-56.0311

>  <Gold.PLP.ligand.clash>  (630) 
0.0000

>  <Gold.PLP.ligand.torsion>  (630) 
1.8554

>  <Gold.PLP.part.buried>  (630) 
-9.5508

>  <Gold.PLP.part.hbond>  (630) 
-4.2363

>  <Gold.PLP.part.metal>  (630) 
0.0000

>  <Gold.PLP.part.nonpolar>  (630) 
-44.5482

>  <Gold.PLP.part.repulsive>  (630) 
0.4034

>  <Gold.Protein.RotatedAtoms>  (630) 


>  <Gold.Protein.RotatedTorsions>  (630) 


>  <Gold.Protein.RotatedWaterAtoms>  (630) 


>  <Gold.Version>  (630) 
5.3.0

>  <PLP.Chemscore.CHOScore>  (630) 


>  <PLP.Chemscore.Hbond>  (630) 


>  <PLP.Chemscore.Internal.Correction>  (630) 


>  <PLP.Chemscore.Metal>  (630) 


>  <PLP.Fitness>  (630) 


>  <PLP.PLP>  (630) 


>  <PLP.ligand.clash>  (630) 


>  <PLP.ligand.torsion>  (630) 


>  <PLP.part.buried>  (630) 


>  <PLP.part.hbond>  (630) 


>  <PLP.part.metal>  (630) 


>  <PLP.part.nonpolar>  (630) 


>  <PLP.part.repulsive>  (630) 


>  <Version>  (630) 


$$$$
3630|Compound_2204|Compounds_3D_F|sdf|653|dock6|1
     RDKit          3D

 28 30  0  0  0  0  0  0  0  0999 V2000
   -9.4288  -20.9986    9.3359 O   0  0  0  0  0  0  0  0  0  0  0  0
  -10.0836  -19.8860    9.7396 C   0  0  0  0  0  0  0  0  0  0  0  0
  -11.4799  -19.7493    9.5302 C   0  0  0  0  0  0  0  0  0  0  0  0
  -12.1978  -20.6991    8.9340 N   0  0  0  0  0  0  0  0  0  0  0  0
  -13.4897  -20.5254    8.7632 C   0  0  0  0  0  0  0  0  0  0  0  0
  -14.1145  -19.3569    9.1997 C   0  0  0  0  0  0  0  0  0  0  0  0
  -13.4246  -18.4055    9.7914 N   0  0  0  0  0  0  0  0  0  0  0  0
  -12.1109  -18.5608    9.9749 C   0  0  0  0  0  0  0  0  0  0  0  0
  -11.3669  -17.6213   10.5723 N   0  0  0  0  0  0  0  0  0  0  0  0
  -10.0714  -17.8013   10.7410 C   0  0  0  0  0  0  0  0  0  0  0  0
   -9.4390  -18.9025   10.3429 N   0  0  0  0  0  0  0  0  0  0  0  0
   -9.3374  -16.8037   11.3641 N   0  0  0  0  0  0  0  0  0  0  0  0
   -8.0666  -16.5636   10.9844 C   0  0  0  0  0  0  0  0  0  0  0  0
   -7.5638  -17.2231   10.0943 O   0  0  0  0  0  0  0  0  0  0  0  0
   -7.2872  -15.5037   11.6468 C   0  0  0  0  0  0  0  0  0  0  0  0
   -5.9183  -15.6817   11.9134 C   0  0  0  0  0  0  0  0  0  0  0  0
   -5.1240  -17.1852   11.4524 S   0  0  0  0  0  0  0  0  0  0  0  0
   -3.4118  -16.7795   11.8780 C   0  0  0  0  0  0  0  0  0  0  0  0
   -5.2219  -14.7242   12.5088 N   0  0  0  0  0  0  0  0  0  0  0  0
   -5.7779  -13.5848   12.8699 C   0  0  0  0  0  0  0  0  0  0  0  0
   -7.1203  -13.3362   12.6406 C   0  0  0  0  0  0  0  0  0  0  0  0
   -7.8950  -14.2976   12.0168 C   0  0  0  0  0  0  0  0  0  0  0  0
  -14.3037  -21.5992    8.0889 C   0  0  0  0  0  0  0  0  0  0  0  0
  -15.1212  -21.0116    7.0744 O   0  0  0  0  0  0  0  0  0  0  0  0
  -15.1931  -22.2911    9.1230 C   0  0  0  0  0  0  0  0  0  0  0  0
  -14.3827  -22.7969   10.1861 O   0  0  0  0  0  0  0  0  0  0  0  0
  -15.9442  -23.4462    8.4593 C   0  0  0  0  0  0  0  0  0  0  0  0
  -16.6770  -22.9541    7.3345 O   0  0  0  0  0  0  0  0  0  0  0  0
  1  2  1  0
  2  3  2  0
  2 11  1  0
  3  4  1  0
  3  8  1  0
  4  5  2  0
  5  6  1  0
  5 23  1  0
  6  7  2  0
  7  8  1  0
  8  9  2  0
  9 10  1  0
 10 11  2  0
 10 12  1  0
 12 13  1  0
 13 14  2  0
 13 15  1  0
 15 16  2  0
 15 22  1  0
 16 17  1  0
 16 19  1  0
 17 18  1  0
 19 20  2  0
 20 21  1  0
 21 22  2  0
 23 24  1  0
 23 25  1  0
 25 26  1  0
 25 27  1  0
 27 28  1  0
M  END
>  <Gold.Gold.Protein.RotatedWaterAtoms>  (631) 


>  <Gold.Id.Protein>  (631) 


>  <Gold.PLP.Chemscore.CHOScore>  (631) 
0.4491

>  <Gold.PLP.Chemscore.Hbond>  (631) 
3.7348

>  <Gold.PLP.Chemscore.Internal.Correction>  (631) 
1.6812

>  <Gold.PLP.Chemscore.Metal>  (631) 
0.0000

>  <Gold.PLP.Fitness>  (631) 
69.0569

>  <Gold.PLP.PLP>  (631) 
-57.0479

>  <Gold.PLP.ligand.clash>  (631) 
0.0000

>  <Gold.PLP.ligand.torsion>  (631) 
1.1121

>  <Gold.PLP.part.buried>  (631) 
-9.1389

>  <Gold.PLP.part.hbond>  (631) 
-5.9980

>  <Gold.PLP.part.metal>  (631) 
0.0000

>  <Gold.PLP.part.nonpolar>  (631) 
-43.1016

>  <Gold.PLP.part.repulsive>  (631) 
0.3095

>  <Gold.Protein.RotatedAtoms>  (631) 


>  <Gold.Protein.RotatedTorsions>  (631) 


>  <Gold.Protein.RotatedWaterAtoms>  (631) 


>  <Gold.Version>  (631) 
5.3.0

>  <PLP.Chemscore.CHOScore>  (631) 


>  <PLP.Chemscore.Hbond>  (631) 


>  <PLP.Chemscore.Internal.Correction>  (631) 


>  <PLP.Chemscore.Metal>  (631) 


>  <PLP.Fitness>  (631) 


>  <PLP.PLP>  (631) 


>  <PLP.ligand.clash>  (631) 


>  <PLP.ligand.torsion>  (631) 


>  <PLP.part.buried>  (631) 


>  <PLP.part.hbond>  (631) 


>  <PLP.part.metal>  (631) 


>  <PLP.part.nonpolar>  (631) 


>  <PLP.part.repulsive>  (631) 


>  <Version>  (631) 


$$$$
3631|Compound_2204|Compounds_3D_F|sdf|653|dock7|1
     RDKit          3D

 28 30  0  0  0  0  0  0  0  0999 V2000
   -9.5974  -19.8901    8.6376 O   0  0  0  0  0  0  0  0  0  0  0  0
   -9.9673  -19.0644    9.6430 C   0  0  0  0  0  0  0  0  0  0  0  0
  -11.2778  -19.1202   10.1833 C   0  0  0  0  0  0  0  0  0  0  0  0
  -12.1895  -19.9778    9.7293 N   0  0  0  0  0  0  0  0  0  0  0  0
  -13.3908  -19.9913   10.2633 C   0  0  0  0  0  0  0  0  0  0  0  0
  -13.7188  -19.1166   11.2994 C   0  0  0  0  0  0  0  0  0  0  0  0
  -12.8335  -18.2610   11.7636 N   0  0  0  0  0  0  0  0  0  0  0  0
  -11.6072  -18.2299   11.2356 C   0  0  0  0  0  0  0  0  0  0  0  0
  -10.6723  -17.3778   11.6748 N   0  0  0  0  0  0  0  0  0  0  0  0
   -9.4689  -17.3691   11.1353 C   0  0  0  0  0  0  0  0  0  0  0  0
   -9.1155  -18.1896   10.1489 N   0  0  0  0  0  0  0  0  0  0  0  0
   -8.5301  -16.4710   11.6192 N   0  0  0  0  0  0  0  0  0  0  0  0
   -8.4451  -15.2337   11.0914 C   0  0  0  0  0  0  0  0  0  0  0  0
   -9.1930  -14.9053   10.1897 O   0  0  0  0  0  0  0  0  0  0  0  0
   -7.4474  -14.2798   11.6058 C   0  0  0  0  0  0  0  0  0  0  0  0
   -6.0899  -14.6366   11.6851 C   0  0  0  0  0  0  0  0  0  0  0  0
   -5.5730  -16.2387   11.1654 S   0  0  0  0  0  0  0  0  0  0  0  0
   -5.1381  -16.9635   12.7663 C   0  0  0  0  0  0  0  0  0  0  0  0
   -5.1967  -13.7740   12.1480 N   0  0  0  0  0  0  0  0  0  0  0  0
   -5.5415  -12.5659   12.5471 C   0  0  0  0  0  0  0  0  0  0  0  0
   -6.8585  -12.1422   12.4987 C   0  0  0  0  0  0  0  0  0  0  0  0
   -7.8332  -12.9986   12.0188 C   0  0  0  0  0  0  0  0  0  0  0  0
  -14.4237  -20.9612    9.7509 C   0  0  0  0  0  0  0  0  0  0  0  0
  -14.5342  -22.0623   10.6554 O   0  0  0  0  0  0  0  0  0  0  0  0
  -14.0037  -21.4739    8.3726 C   0  0  0  0  0  0  0  0  0  0  0  0
  -13.7595  -20.3642    7.5056 O   0  0  0  0  0  0  0  0  0  0  0  0
  -15.1193  -22.3421    7.7889 C   0  0  0  0  0  0  0  0  0  0  0  0
  -15.3247  -23.4813    8.6281 O   0  0  0  0  0  0  0  0  0  0  0  0
  1  2  1  0
  2  3  2  0
  2 11  1  0
  3  4  1  0
  3  8  1  0
  4  5  2  0
  5  6  1  0
  5 23  1  0
  6  7  2  0
  7  8  1  0
  8  9  2  0
  9 10  1  0
 10 11  2  0
 10 12  1  0
 12 13  1  0
 13 14  2  0
 13 15  1  0
 15 16  2  0
 15 22  1  0
 16 17  1  0
 16 19  1  0
 17 18  1  0
 19 20  2  0
 20 21  1  0
 21 22  2  0
 23 24  1  0
 23 25  1  0
 25 26  1  0
 25 27  1  0
 27 28  1  0
M  END
>  <Gold.Gold.Protein.RotatedWaterAtoms>  (632) 


>  <Gold.Id.Protein>  (632) 


>  <Gold.PLP.Chemscore.CHOScore>  (632) 
1.5579

>  <Gold.PLP.Chemscore.Hbond>  (632) 
1.9760

>  <Gold.PLP.Chemscore.Internal.Correction>  (632) 
1.6812

>  <Gold.PLP.Chemscore.Metal>  (632) 
0.0000

>  <Gold.PLP.Fitness>  (632) 
63.0761

>  <Gold.PLP.PLP>  (632) 
-55.4335

>  <Gold.PLP.ligand.clash>  (632) 
0.0000

>  <Gold.PLP.ligand.torsion>  (632) 
2.3202

>  <Gold.PLP.part.buried>  (632) 
-6.9444

>  <Gold.PLP.part.hbond>  (632) 
-5.1128

>  <Gold.PLP.part.metal>  (632) 
0.0000

>  <Gold.PLP.part.nonpolar>  (632) 
-45.7663

>  <Gold.PLP.part.repulsive>  (632) 
2.2278

>  <Gold.Protein.RotatedAtoms>  (632) 


>  <Gold.Protein.RotatedTorsions>  (632) 


>  <Gold.Protein.RotatedWaterAtoms>  (632) 


>  <Gold.Version>  (632) 
5.3.0

>  <PLP.Chemscore.CHOScore>  (632) 


>  <PLP.Chemscore.Hbond>  (632) 


>  <PLP.Chemscore.Internal.Correction>  (632) 


>  <PLP.Chemscore.Metal>  (632) 


>  <PLP.Fitness>  (632) 


>  <PLP.PLP>  (632) 


>  <PLP.ligand.clash>  (632) 


>  <PLP.ligand.torsion>  (632) 


>  <PLP.part.buried>  (632) 


>  <PLP.part.hbond>  (632) 


>  <PLP.part.metal>  (632) 


>  <PLP.part.nonpolar>  (632) 


>  <PLP.part.repulsive>  (632) 


>  <Version>  (632) 


$$$$
3632|Compound_2204|Compounds_3D_F|sdf|653|dock8|1
     RDKit          3D

 28 30  0  0  0  0  0  0  0  0999 V2000
   -9.7993  -19.6223    8.5937 O   0  0  0  0  0  0  0  0  0  0  0  0
  -10.1975  -18.9370    9.6898 C   0  0  0  0  0  0  0  0  0  0  0  0
  -11.4793  -19.1558   10.2567 C   0  0  0  0  0  0  0  0  0  0  0  0
  -12.3358  -20.0348    9.7403 N   0  0  0  0  0  0  0  0  0  0  0  0
  -13.5124  -20.2020   10.3024 C   0  0  0  0  0  0  0  0  0  0  0  0
  -13.8717  -19.4678   11.4329 C   0  0  0  0  0  0  0  0  0  0  0  0
  -13.0411  -18.5940   11.9600 N   0  0  0  0  0  0  0  0  0  0  0  0
  -11.8407  -18.4079   11.4050 C   0  0  0  0  0  0  0  0  0  0  0  0
  -10.9613  -17.5309   11.9054 N   0  0  0  0  0  0  0  0  0  0  0  0
   -9.7823  -17.3677   11.3373 C   0  0  0  0  0  0  0  0  0  0  0  0
   -9.4003  -18.0511   10.2612 N   0  0  0  0  0  0  0  0  0  0  0  0
   -8.9011  -16.4493   11.8869 N   0  0  0  0  0  0  0  0  0  0  0  0
   -8.4384  -15.4274   11.1397 C   0  0  0  0  0  0  0  0  0  0  0  0
   -8.7946  -15.3113    9.9822 O   0  0  0  0  0  0  0  0  0  0  0  0
   -7.5020  -14.4519   11.7241 C   0  0  0  0  0  0  0  0  0  0  0  0
   -6.3237  -14.8819   12.3590 C   0  0  0  0  0  0  0  0  0  0  0  0
   -5.9599  -16.6029   12.4587 S   0  0  0  0  0  0  0  0  0  0  0  0
   -4.6975  -16.7327   11.1676 C   0  0  0  0  0  0  0  0  0  0  0  0
   -5.4846  -13.9997   12.8822 N   0  0  0  0  0  0  0  0  0  0  0  0
   -5.7194  -12.7036   12.8292 C   0  0  0  0  0  0  0  0  0  0  0  0
   -6.8579  -12.2042   12.2204 C   0  0  0  0  0  0  0  0  0  0  0  0
   -7.7664  -13.0786   11.6516 C   0  0  0  0  0  0  0  0  0  0  0  0
  -14.4828  -21.1964    9.7195 C   0  0  0  0  0  0  0  0  0  0  0  0
  -14.4760  -22.3881   10.5086 O   0  0  0  0  0  0  0  0  0  0  0  0
  -14.0704  -21.5322    8.2855 C   0  0  0  0  0  0  0  0  0  0  0  0
  -14.3681  -20.4247    7.4325 O   0  0  0  0  0  0  0  0  0  0  0  0
  -14.8391  -22.7653    7.8086 C   0  0  0  0  0  0  0  0  0  0  0  0
  -16.1721  -22.3883    7.4549 O   0  0  0  0  0  0  0  0  0  0  0  0
  1  2  1  0
  2  3  2  0
  2 11  1  0
  3  4  1  0
  3  8  1  0
  4  5  2  0
  5  6  1  0
  5 23  1  0
  6  7  2  0
  7  8  1  0
  8  9  2  0
  9 10  1  0
 10 11  2  0
 10 12  1  0
 12 13  1  0
 13 14  2  0
 13 15  1  0
 15 16  2  0
 15 22  1  0
 16 17  1  0
 16 19  1  0
 17 18  1  0
 19 20  2  0
 20 21  1  0
 21 22  2  0
 23 24  1  0
 23 25  1  0
 25 26  1  0
 25 27  1  0
 27 28  1  0
M  END
>  <Gold.Gold.Protein.RotatedWaterAtoms>  (633) 


>  <Gold.Id.Protein>  (633) 


>  <Gold.PLP.Chemscore.CHOScore>  (633) 
1.6647

>  <Gold.PLP.Chemscore.Hbond>  (633) 
2.1402

>  <Gold.PLP.Chemscore.Internal.Correction>  (633) 
1.6812

>  <Gold.PLP.Chemscore.Metal>  (633) 
0.0000

>  <Gold.PLP.Fitness>  (633) 
67.2576

>  <Gold.PLP.PLP>  (633) 
-59.1978

>  <Gold.PLP.ligand.clash>  (633) 
0.0000

>  <Gold.PLP.ligand.torsion>  (633) 
2.5181

>  <Gold.PLP.part.buried>  (633) 
-8.0051

>  <Gold.PLP.part.hbond>  (633) 
-6.3185

>  <Gold.PLP.part.metal>  (633) 
0.0000

>  <Gold.PLP.part.nonpolar>  (633) 
-45.7063

>  <Gold.PLP.part.repulsive>  (633) 
0.5889

>  <Gold.Protein.RotatedAtoms>  (633) 


>  <Gold.Protein.RotatedTorsions>  (633) 


>  <Gold.Protein.RotatedWaterAtoms>  (633) 


>  <Gold.Version>  (633) 
5.3.0

>  <PLP.Chemscore.CHOScore>  (633) 


>  <PLP.Chemscore.Hbond>  (633) 


>  <PLP.Chemscore.Internal.Correction>  (633) 


>  <PLP.Chemscore.Metal>  (633) 


>  <PLP.Fitness>  (633) 


>  <PLP.PLP>  (633) 


>  <PLP.ligand.clash>  (633) 


>  <PLP.ligand.torsion>  (633) 


>  <PLP.part.buried>  (633) 


>  <PLP.part.hbond>  (633) 


>  <PLP.part.metal>  (633) 


>  <PLP.part.nonpolar>  (633) 


>  <PLP.part.repulsive>  (633) 


>  <Version>  (633) 


$$$$
3633|Compound_2204|Compounds_3D_F|sdf|653|dock9|1
     RDKit          3D

 28 30  0  0  0  0  0  0  0  0999 V2000
  -10.1424  -19.4615    8.6007 O   0  0  0  0  0  0  0  0  0  0  0  0
  -10.5025  -18.8657    9.7604 C   0  0  0  0  0  0  0  0  0  0  0  0
  -11.6393  -19.3110   10.4828 C   0  0  0  0  0  0  0  0  0  0  0  0
  -12.3921  -20.3226   10.0554 N   0  0  0  0  0  0  0  0  0  0  0  0
  -13.4359  -20.6985   10.7609 C   0  0  0  0  0  0  0  0  0  0  0  0
  -13.7618  -20.0480   11.9512 C   0  0  0  0  0  0  0  0  0  0  0  0
  -13.0318  -19.0461   12.3924 N   0  0  0  0  0  0  0  0  0  0  0  0
  -11.9673  -18.6475   11.6914 C   0  0  0  0  0  0  0  0  0  0  0  0
  -11.1938  -17.6337   12.1000 N   0  0  0  0  0  0  0  0  0  0  0  0
  -10.1480  -17.2613   11.3881 C   0  0  0  0  0  0  0  0  0  0  0  0
   -9.8013  -17.8582   10.2503 N   0  0  0  0  0  0  0  0  0  0  0  0
   -9.3734  -16.2068   11.8465 N   0  0  0  0  0  0  0  0  0  0  0  0
   -8.0515  -16.1768   11.5849 C   0  0  0  0  0  0  0  0  0  0  0  0
   -7.5382  -17.0760   10.9461 O   0  0  0  0  0  0  0  0  0  0  0  0
   -7.2289  -15.0562   12.0722 C   0  0  0  0  0  0  0  0  0  0  0  0
   -5.9358  -15.2828   12.5752 C   0  0  0  0  0  0  0  0  0  0  0  0
   -5.2894  -16.9211   12.6248 S   0  0  0  0  0  0  0  0  0  0  0  0
   -3.7717  -16.6894   11.6654 C   0  0  0  0  0  0  0  0  0  0  0  0
   -5.2000  -14.2707   13.0115 N   0  0  0  0  0  0  0  0  0  0  0  0
   -5.6459  -13.0303   12.9919 C   0  0  0  0  0  0  0  0  0  0  0  0
   -6.9085  -12.7285   12.5111 C   0  0  0  0  0  0  0  0  0  0  0  0
   -7.7185  -13.7447   12.0370 C   0  0  0  0  0  0  0  0  0  0  0  0
  -14.2887  -21.8432   10.2788 C   0  0  0  0  0  0  0  0  0  0  0  0
  -13.6427  -23.0810   10.5844 O   0  0  0  0  0  0  0  0  0  0  0  0
  -14.4865  -21.7312    8.7664 C   0  0  0  0  0  0  0  0  0  0  0  0
  -15.1040  -20.4796    8.4581 O   0  0  0  0  0  0  0  0  0  0  0  0
  -15.3797  -22.8744    8.2822 C   0  0  0  0  0  0  0  0  0  0  0  0
  -16.2393  -22.3999    7.2430 O   0  0  0  0  0  0  0  0  0  0  0  0
  1  2  1  0
  2  3  2  0
  2 11  1  0
  3  4  1  0
  3  8  1  0
  4  5  2  0
  5  6  1  0
  5 23  1  0
  6  7  2  0
  7  8  1  0
  8  9  2  0
  9 10  1  0
 10 11  2  0
 10 12  1  0
 12 13  1  0
 13 14  2  0
 13 15  1  0
 15 16  2  0
 15 22  1  0
 16 17  1  0
 16 19  1  0
 17 18  1  0
 19 20  2  0
 20 21  1  0
 21 22  2  0
 23 24  1  0
 23 25  1  0
 25 26  1  0
 25 27  1  0
 27 28  1  0
M  END
>  <Gold.Gold.Protein.RotatedWaterAtoms>  (634) 


>  <Gold.Id.Protein>  (634) 


>  <Gold.PLP.Chemscore.CHOScore>  (634) 
1.4698

>  <Gold.PLP.Chemscore.Hbond>  (634) 
3.7800

>  <Gold.PLP.Chemscore.Internal.Correction>  (634) 
1.6812

>  <Gold.PLP.Chemscore.Metal>  (634) 
0.0000

>  <Gold.PLP.Fitness>  (634) 
67.1077

>  <Gold.PLP.PLP>  (634) 
-53.6393

>  <Gold.PLP.ligand.clash>  (634) 
0.2604

>  <Gold.PLP.ligand.torsion>  (634) 
1.8509

>  <Gold.PLP.part.buried>  (634) 
-1.3464

>  <Gold.PLP.part.hbond>  (634) 
-8.7275

>  <Gold.PLP.part.metal>  (634) 
0.0000

>  <Gold.PLP.part.nonpolar>  (634) 
-44.2059

>  <Gold.PLP.part.repulsive>  (634) 
0.4972

>  <Gold.Protein.RotatedAtoms>  (634) 


>  <Gold.Protein.RotatedTorsions>  (634) 


>  <Gold.Protein.RotatedWaterAtoms>  (634) 


>  <Gold.Version>  (634) 
5.3.0

>  <PLP.Chemscore.CHOScore>  (634) 


>  <PLP.Chemscore.Hbond>  (634) 


>  <PLP.Chemscore.Internal.Correction>  (634) 


>  <PLP.Chemscore.Metal>  (634) 


>  <PLP.Fitness>  (634) 


>  <PLP.PLP>  (634) 


>  <PLP.ligand.clash>  (634) 


>  <PLP.ligand.torsion>  (634) 


>  <PLP.part.buried>  (634) 


>  <PLP.part.hbond>  (634) 


>  <PLP.part.metal>  (634) 


>  <PLP.part.nonpolar>  (634) 


>  <PLP.part.repulsive>  (634) 


>  <Version>  (634) 


$$$$
3634|Compound_2205|Compounds_3D_F|sdf|654|dock1|1
     RDKit          3D

 20 21  0  0  0  0  0  0  0  0999 V2000
   -9.3173  -17.6113   11.3118 N   0  0  0  0  0  0  0  0  0  0  0  0
   -9.0997  -16.4208   11.9055 C   0  0  0  0  0  0  0  0  0  0  0  0
  -10.0282  -15.8076   12.3963 O   0  0  0  0  0  0  0  0  0  0  0  0
   -7.7364  -15.8632   11.9596 C   0  0  0  0  0  0  0  0  0  0  0  0
   -7.5279  -14.4754   11.8780 C   0  0  0  0  0  0  0  0  0  0  0  0
   -8.9054  -13.3896   11.7095 S   0  0  0  0  0  0  0  0  0  0  0  0
   -8.0424  -11.8015   11.6073 C   0  0  0  0  0  0  0  0  0  0  0  0
   -6.2992  -13.9794   11.9276 N   0  0  0  0  0  0  0  0  0  0  0  0
   -5.2418  -14.7562   12.0532 C   0  0  0  0  0  0  0  0  0  0  0  0
   -5.3684  -16.1325   12.1394 C   0  0  0  0  0  0  0  0  0  0  0  0
   -6.6268  -16.7047   12.0985 C   0  0  0  0  0  0  0  0  0  0  0  0
  -10.6072  -18.1372   11.2556 C   0  0  0  0  0  0  0  0  0  0  0  0
  -11.5108  -18.1031   12.1991 N   0  0  0  0  0  0  0  0  0  0  0  0
  -12.5343  -18.6449   11.8511 O   0  0  0  0  0  0  0  0  0  0  0  0
  -12.4448  -19.1222   10.6018 C   0  0  0  0  0  0  0  0  0  0  0  0
  -11.2042  -18.8138   10.1582 C   0  0  0  0  0  0  0  0  0  0  0  0
  -13.5171  -19.8548    9.8375 C   0  0  0  0  0  0  0  0  0  0  0  0
  -13.9071  -19.0441    8.6002 C   0  0  0  0  0  0  0  0  0  0  0  0
  -12.9877  -21.2242    9.4037 C   0  0  0  0  0  0  0  0  0  0  0  0
  -14.7435  -20.0424   10.7331 C   0  0  0  0  0  0  0  0  0  0  0  0
  1  2  1  0
  1 12  1  0
  2  3  2  0
  2  4  1  0
  4  5  2  0
  4 11  1  0
  5  6  1  0
  5  8  1  0
  6  7  1  0
  8  9  2  0
  9 10  1  0
 10 11  2  0
 12 13  2  0
 12 16  1  0
 13 14  1  0
 14 15  1  0
 15 16  2  0
 15 17  1  0
 17 18  1  0
 17 19  1  0
 17 20  1  0
M  END
>  <Gold.Gold.Protein.RotatedWaterAtoms>  (635) 


>  <Gold.Id.Protein>  (635) 


>  <Gold.PLP.Chemscore.CHOScore>  (635) 
1.6072

>  <Gold.PLP.Chemscore.Hbond>  (635) 
1.9920

>  <Gold.PLP.Chemscore.Internal.Correction>  (635) 
1.0490

>  <Gold.PLP.Chemscore.Metal>  (635) 
0.0000

>  <Gold.PLP.Fitness>  (635) 
57.9324

>  <Gold.PLP.PLP>  (635) 
-47.7131

>  <Gold.PLP.ligand.clash>  (635) 
0.0000

>  <Gold.PLP.ligand.torsion>  (635) 
0.8137

>  <Gold.PLP.part.buried>  (635) 
-3.8256

>  <Gold.PLP.part.hbond>  (635) 
-2.1103

>  <Gold.PLP.part.metal>  (635) 
0.0000

>  <Gold.PLP.part.nonpolar>  (635) 
-40.7762

>  <Gold.PLP.part.repulsive>  (635) 
0.4689

>  <Gold.Protein.RotatedAtoms>  (635) 


>  <Gold.Protein.RotatedTorsions>  (635) 


>  <Gold.Protein.RotatedWaterAtoms>  (635) 


>  <Gold.Version>  (635) 
5.3.0

>  <PLP.Chemscore.CHOScore>  (635) 


>  <PLP.Chemscore.Hbond>  (635) 


>  <PLP.Chemscore.Internal.Correction>  (635) 


>  <PLP.Chemscore.Metal>  (635) 


>  <PLP.Fitness>  (635) 


>  <PLP.PLP>  (635) 


>  <PLP.ligand.clash>  (635) 


>  <PLP.ligand.torsion>  (635) 


>  <PLP.part.buried>  (635) 


>  <PLP.part.hbond>  (635) 


>  <PLP.part.metal>  (635) 


>  <PLP.part.nonpolar>  (635) 


>  <PLP.part.repulsive>  (635) 


>  <Version>  (635) 


$$$$
3635|Compound_2205|Compounds_3D_F|sdf|654|dock2|1
     RDKit          3D

 20 21  0  0  0  0  0  0  0  0999 V2000
   -9.1333  -17.5128   11.4238 N   0  0  0  0  0  0  0  0  0  0  0  0
   -8.9855  -16.2672   11.9176 C   0  0  0  0  0  0  0  0  0  0  0  0
   -9.9574  -15.6483   12.3064 O   0  0  0  0  0  0  0  0  0  0  0  0
   -7.6458  -15.6565   11.9860 C   0  0  0  0  0  0  0  0  0  0  0  0
   -7.4899  -14.2626   11.8915 C   0  0  0  0  0  0  0  0  0  0  0  0
   -8.9056  -13.2331   11.6893 S   0  0  0  0  0  0  0  0  0  0  0  0
   -8.1045  -11.6123   11.5986 C   0  0  0  0  0  0  0  0  0  0  0  0
   -6.2822  -13.7186   11.9541 N   0  0  0  0  0  0  0  0  0  0  0  0
   -5.1977  -14.4523   12.1049 C   0  0  0  0  0  0  0  0  0  0  0  0
   -5.2723  -15.8315   12.2052 C   0  0  0  0  0  0  0  0  0  0  0  0
   -6.5068  -16.4525   12.1517 C   0  0  0  0  0  0  0  0  0  0  0  0
  -10.4006  -18.0895   11.3538 C   0  0  0  0  0  0  0  0  0  0  0  0
  -11.2002  -18.3516   12.3537 N   0  0  0  0  0  0  0  0  0  0  0  0
  -12.2330  -18.8532   11.9744 O   0  0  0  0  0  0  0  0  0  0  0  0
  -12.2576  -18.9945   10.6417 C   0  0  0  0  0  0  0  0  0  0  0  0
  -11.0836  -18.5054   10.1796 C   0  0  0  0  0  0  0  0  0  0  0  0
  -13.3755  -19.5789    9.8174 C   0  0  0  0  0  0  0  0  0  0  0  0
  -12.8367  -20.7341    8.9717 C   0  0  0  0  0  0  0  0  0  0  0  0
  -14.4759  -20.0974   10.7469 C   0  0  0  0  0  0  0  0  0  0  0  0
  -13.9505  -18.4982    8.8995 C   0  0  0  0  0  0  0  0  0  0  0  0
  1  2  1  0
  1 12  1  0
  2  3  2  0
  2  4  1  0
  4  5  2  0
  4 11  1  0
  5  6  1  0
  5  8  1  0
  6  7  1  0
  8  9  2  0
  9 10  1  0
 10 11  2  0
 12 13  2  0
 12 16  1  0
 13 14  1  0
 14 15  1  0
 15 16  2  0
 15 17  1  0
 17 18  1  0
 17 19  1  0
 17 20  1  0
M  END
>  <Gold.Gold.Protein.RotatedWaterAtoms>  (636) 


>  <Gold.Id.Protein>  (636) 


>  <Gold.PLP.Chemscore.CHOScore>  (636) 
1.4897

>  <Gold.PLP.Chemscore.Hbond>  (636) 
1.8160

>  <Gold.PLP.Chemscore.Internal.Correction>  (636) 
1.0018

>  <Gold.PLP.Chemscore.Metal>  (636) 
0.0000

>  <Gold.PLP.Fitness>  (636) 
58.4665

>  <Gold.PLP.PLP>  (636) 
-51.1470

>  <Gold.PLP.ligand.clash>  (636) 
1.6025

>  <Gold.PLP.ligand.torsion>  (636) 
0.9984

>  <Gold.PLP.part.buried>  (636) 
-7.4888

>  <Gold.PLP.part.hbond>  (636) 
-1.4557

>  <Gold.PLP.part.metal>  (636) 
0.0000

>  <Gold.PLP.part.nonpolar>  (636) 
-42.6119

>  <Gold.PLP.part.repulsive>  (636) 
0.3748

>  <Gold.Protein.RotatedAtoms>  (636) 


>  <Gold.Protein.RotatedTorsions>  (636) 


>  <Gold.Protein.RotatedWaterAtoms>  (636) 


>  <Gold.Version>  (636) 
5.3.0

>  <PLP.Chemscore.CHOScore>  (636) 


>  <PLP.Chemscore.Hbond>  (636) 


>  <PLP.Chemscore.Internal.Correction>  (636) 


>  <PLP.Chemscore.Metal>  (636) 


>  <PLP.Fitness>  (636) 


>  <PLP.PLP>  (636) 


>  <PLP.ligand.clash>  (636) 


>  <PLP.ligand.torsion>  (636) 


>  <PLP.part.buried>  (636) 


>  <PLP.part.hbond>  (636) 


>  <PLP.part.metal>  (636) 


>  <PLP.part.nonpolar>  (636) 


>  <PLP.part.repulsive>  (636) 


>  <Version>  (636) 


$$$$
3636|Compound_2205|Compounds_3D_F|sdf|654|dock3|1
     RDKit          3D

 20 21  0  0  0  0  0  0  0  0999 V2000
   -9.1150  -17.6777   11.4510 N   0  0  0  0  0  0  0  0  0  0  0  0
   -8.9669  -16.4213   11.9164 C   0  0  0  0  0  0  0  0  0  0  0  0
   -9.9431  -15.7783   12.2517 O   0  0  0  0  0  0  0  0  0  0  0  0
   -7.6216  -15.8279   12.0185 C   0  0  0  0  0  0  0  0  0  0  0  0
   -7.4278  -14.4535   11.7958 C   0  0  0  0  0  0  0  0  0  0  0  0
   -8.8021  -13.4279   11.3906 S   0  0  0  0  0  0  0  0  0  0  0  0
   -8.0491  -11.7955   11.6034 C   0  0  0  0  0  0  0  0  0  0  0  0
   -6.2153  -13.9249   11.8894 N   0  0  0  0  0  0  0  0  0  0  0  0
   -5.1609  -14.6563   12.1902 C   0  0  0  0  0  0  0  0  0  0  0  0
   -5.2737  -16.0167   12.4230 C   0  0  0  0  0  0  0  0  0  0  0  0
   -6.5153  -16.6206   12.3442 C   0  0  0  0  0  0  0  0  0  0  0  0
  -10.3875  -18.2382   11.3491 C   0  0  0  0  0  0  0  0  0  0  0  0
  -11.1423  -18.6560   12.3308 N   0  0  0  0  0  0  0  0  0  0  0  0
  -12.1941  -19.0932   11.9248 O   0  0  0  0  0  0  0  0  0  0  0  0
  -12.2799  -19.0227   10.5890 C   0  0  0  0  0  0  0  0  0  0  0  0
  -11.1254  -18.4651   10.1565 C   0  0  0  0  0  0  0  0  0  0  0  0
  -13.4374  -19.4717    9.7350 C   0  0  0  0  0  0  0  0  0  0  0  0
  -13.9585  -18.2882    8.9177 C   0  0  0  0  0  0  0  0  0  0  0  0
  -12.9710  -20.5799    8.7873 C   0  0  0  0  0  0  0  0  0  0  0  0
  -14.5560  -20.0053   10.6324 C   0  0  0  0  0  0  0  0  0  0  0  0
  1  2  1  0
  1 12  1  0
  2  3  2  0
  2  4  1  0
  4  5  2  0
  4 11  1  0
  5  6  1  0
  5  8  1  0
  6  7  1  0
  8  9  2  0
  9 10  1  0
 10 11  2  0
 12 13  2  0
 12 16  1  0
 13 14  1  0
 14 15  1  0
 15 16  2  0
 15 17  1  0
 17 18  1  0
 17 19  1  0
 17 20  1  0
M  END
>  <Gold.Gold.Protein.RotatedWaterAtoms>  (637) 


>  <Gold.Id.Protein>  (637) 


>  <Gold.PLP.Chemscore.CHOScore>  (637) 
1.3520

>  <Gold.PLP.Chemscore.Hbond>  (637) 
1.9120

>  <Gold.PLP.Chemscore.Internal.Correction>  (637) 
1.0018

>  <Gold.PLP.Chemscore.Metal>  (637) 
0.0000

>  <Gold.PLP.Fitness>  (637) 
60.1725

>  <Gold.PLP.PLP>  (637) 
-51.9997

>  <Gold.PLP.ligand.clash>  (637) 
0.0000

>  <Gold.PLP.ligand.torsion>  (637) 
1.3105

>  <Gold.PLP.part.buried>  (637) 
-8.5788

>  <Gold.PLP.part.hbond>  (637) 
-1.4842

>  <Gold.PLP.part.metal>  (637) 
0.0000

>  <Gold.PLP.part.nonpolar>  (637) 
-43.2855

>  <Gold.PLP.part.repulsive>  (637) 
0.3506

>  <Gold.Protein.RotatedAtoms>  (637) 


>  <Gold.Protein.RotatedTorsions>  (637) 


>  <Gold.Protein.RotatedWaterAtoms>  (637) 


>  <Gold.Version>  (637) 
5.3.0

>  <PLP.Chemscore.CHOScore>  (637) 


>  <PLP.Chemscore.Hbond>  (637) 


>  <PLP.Chemscore.Internal.Correction>  (637) 


>  <PLP.Chemscore.Metal>  (637) 


>  <PLP.Fitness>  (637) 


>  <PLP.PLP>  (637) 


>  <PLP.ligand.clash>  (637) 


>  <PLP.ligand.torsion>  (637) 


>  <PLP.part.buried>  (637) 


>  <PLP.part.hbond>  (637) 


>  <PLP.part.metal>  (637) 


>  <PLP.part.nonpolar>  (637) 


>  <PLP.part.repulsive>  (637) 


>  <Version>  (637) 


$$$$
3637|Compound_2208|Compounds_3D_F|sdf|655|dock1|1
     RDKit          3D

 38 42  0  0  0  0  0  0  0  0999 V2000
   -7.6722  -20.0736    8.6929 O   0  0  0  0  0  0  0  0  0  0  0  0
   -8.3893  -19.5070    9.6931 C   0  0  0  0  0  0  0  0  0  0  0  0
   -9.1305  -20.3013   10.5809 C   0  0  0  0  0  0  0  0  0  0  0  0
   -9.3412  -21.6344   10.7180 N   0  0  0  0  0  0  0  0  0  0  0  0
  -10.1305  -21.8463   11.7305 C   0  0  0  0  0  0  0  0  0  0  0  0
  -10.4764  -20.6603   12.3083 N   0  0  0  0  0  0  0  0  0  0  0  0
   -9.8565  -19.6609   11.6009 C   0  0  0  0  0  0  0  0  0  0  0  0
   -9.8171  -18.3368   11.6883 N   0  0  0  0  0  0  0  0  0  0  0  0
   -9.1053  -17.6269   10.8297 C   0  0  0  0  0  0  0  0  0  0  0  0
   -8.4020  -18.1911    9.8558 N   0  0  0  0  0  0  0  0  0  0  0  0
   -9.0888  -16.2433   10.9527 N   0  0  0  0  0  0  0  0  0  0  0  0
   -7.9537  -15.6116   11.3099 C   0  0  0  0  0  0  0  0  0  0  0  0
   -6.9442  -16.2519   11.5252 O   0  0  0  0  0  0  0  0  0  0  0  0
   -7.9371  -14.1389   11.4409 C   0  0  0  0  0  0  0  0  0  0  0  0
   -6.7619  -13.4811   11.8061 C   0  0  0  0  0  0  0  0  0  0  0  0
   -6.7536  -12.1061   11.9258 C   0  0  0  0  0  0  0  0  0  0  0  0
   -4.9907  -11.1154   12.4736 I   0  0  0  0  0  0  0  0  0  0  0  0
   -7.9066  -11.3801   11.6841 C   0  0  0  0  0  0  0  0  0  0  0  0
   -9.0750  -12.0273   11.3222 C   0  0  0  0  0  0  0  0  0  0  0  0
   -9.0959  -13.4002   11.1942 C   0  0  0  0  0  0  0  0  0  0  0  0
   -7.8902   -9.8797   11.8168 C   0  0  0  0  0  0  0  0  0  0  0  0
  -11.3486  -20.4851   13.4715 C   0  0  0  0  0  0  0  0  0  0  0  0
  -10.7013  -21.0037   14.6533 O   0  0  0  0  0  0  0  0  0  0  0  0
  -11.5599  -21.9583   15.2522 C   0  0  0  0  0  0  0  0  0  0  0  0
  -10.9123  -23.0771   16.0407 C   0  0  0  0  0  0  0  0  0  0  0  0
  -11.9850  -23.8242   16.6653 O   0  0  0  0  0  0  0  0  0  0  0  0
  -13.2564  -24.3181   15.7838 P   0  0  0  0  0  0  0  0  0  0  0  0
  -14.4470  -24.4627   16.6508 O   0  0  0  0  0  0  0  0  0  0  0  0
  -12.9193  -25.7226   15.0737 O   0  0  0  0  0  0  0  0  0  0  0  0
  -13.5243  -23.1701   14.6555 O   0  0  0  0  0  0  0  0  0  0  0  0
  -12.3564  -22.5718   14.0696 C   0  0  0  0  0  0  0  0  0  0  0  0
  -12.6630  -21.2873   13.2710 C   0  0  0  0  0  0  0  0  0  0  0  0
  -12.8952  -21.5872   11.8700 O   0  0  0  0  0  0  0  0  0  0  0  0
  -14.1213  -22.0172   11.5330 C   0  0  0  0  0  0  0  0  0  0  0  0
  -14.9417  -22.2368   12.3926 O   0  0  0  0  0  0  0  0  0  0  0  0
  -14.4757  -22.2249   10.0833 C   0  0  0  0  0  0  0  0  0  0  0  0
  -14.9132  -20.8938    9.4684 C   0  0  0  0  0  0  0  0  0  0  0  0
  -13.6908  -20.1643    8.9091 C   0  0  0  0  0  0  0  0  0  0  0  0
  1  2  1  0
  2  3  2  0
  2 10  1  0
  3  4  1  0
  3  7  1  0
  4  5  2  0
  5  6  1  0
  6  7  1  0
  6 22  1  0
  7  8  2  0
  8  9  1  0
  9 10  2  0
  9 11  1  0
 11 12  1  0
 12 13  2  0
 12 14  1  0
 14 15  2  0
 14 20  1  0
 15 16  1  0
 16 17  1  0
 16 18  2  0
 18 19  1  0
 18 21  1  0
 19 20  2  0
 22 23  1  0
 22 32  1  0
 23 24  1  0
 24 25  1  0
 24 31  1  0
 25 26  1  0
 26 27  1  0
 27 28  2  0
 27 29  1  0
 27 30  1  0
 30 31  1  0
 31 32  1  0
 32 33  1  0
 33 34  1  0
 34 35  2  0
 34 36  1  0
 36 37  1  0
 37 38  1  0
M  END
>  <Gold.Gold.Protein.RotatedWaterAtoms>  (638) 


>  <Gold.Id.Protein>  (638) 


>  <Gold.PLP.Chemscore.CHOScore>  (638) 
0.0000

>  <Gold.PLP.Chemscore.Hbond>  (638) 
1.1300

>  <Gold.PLP.Chemscore.Internal.Correction>  (638) 
0.6718

>  <Gold.PLP.Chemscore.Metal>  (638) 
0.0000

>  <Gold.PLP.Fitness>  (638) 
63.0377

>  <Gold.PLP.PLP>  (638) 
-62.0083

>  <Gold.PLP.ligand.clash>  (638) 
0.0000

>  <Gold.PLP.ligand.torsion>  (638) 
1.5162

>  <Gold.PLP.part.buried>  (638) 
2.9071

>  <Gold.PLP.part.hbond>  (638) 
-5.0828

>  <Gold.PLP.part.metal>  (638) 
0.0000

>  <Gold.PLP.part.nonpolar>  (638) 
-61.2845

>  <Gold.PLP.part.repulsive>  (638) 
0.4104

>  <Gold.Protein.RotatedAtoms>  (638) 


>  <Gold.Protein.RotatedTorsions>  (638) 


>  <Gold.Protein.RotatedWaterAtoms>  (638) 


>  <Gold.Version>  (638) 
5.3.0

>  <PLP.Chemscore.CHOScore>  (638) 


>  <PLP.Chemscore.Hbond>  (638) 


>  <PLP.Chemscore.Internal.Correction>  (638) 


>  <PLP.Chemscore.Metal>  (638) 


>  <PLP.Fitness>  (638) 


>  <PLP.PLP>  (638) 


>  <PLP.ligand.clash>  (638) 


>  <PLP.ligand.torsion>  (638) 


>  <PLP.part.buried>  (638) 


>  <PLP.part.hbond>  (638) 


>  <PLP.part.metal>  (638) 


>  <PLP.part.nonpolar>  (638) 


>  <PLP.part.repulsive>  (638) 


>  <Version>  (638) 


$$$$
3638|Compound_2208|Compounds_3D_F|sdf|655|dock2|1
     RDKit          3D

 38 42  0  0  0  0  0  0  0  0999 V2000
   -7.7461  -21.7506    6.9219 O   0  0  0  0  0  0  0  0  0  0  0  0
   -7.9219  -21.3661    8.2090 C   0  0  0  0  0  0  0  0  0  0  0  0
   -8.6461  -22.1691    9.1031 C   0  0  0  0  0  0  0  0  0  0  0  0
   -9.2867  -23.3612    9.0088 N   0  0  0  0  0  0  0  0  0  0  0  0
   -9.8087  -23.6647   10.1614 C   0  0  0  0  0  0  0  0  0  0  0  0
   -9.5349  -22.6850   11.0699 N   0  0  0  0  0  0  0  0  0  0  0  0
   -8.7977  -21.7219   10.4277 C   0  0  0  0  0  0  0  0  0  0  0  0
   -8.2556  -20.5638   10.7846 N   0  0  0  0  0  0  0  0  0  0  0  0
   -7.5811  -19.8385    9.9090 C   0  0  0  0  0  0  0  0  0  0  0  0
   -7.4100  -20.2257    8.6510 N   0  0  0  0  0  0  0  0  0  0  0  0
   -7.0285  -18.6319   10.3195 N   0  0  0  0  0  0  0  0  0  0  0  0
   -7.7940  -17.7191   10.9486 C   0  0  0  0  0  0  0  0  0  0  0  0
   -8.9681  -17.9506   11.1566 O   0  0  0  0  0  0  0  0  0  0  0  0
   -7.2051  -16.4349   11.3849 C   0  0  0  0  0  0  0  0  0  0  0  0
   -7.9528  -15.2592   11.3083 C   0  0  0  0  0  0  0  0  0  0  0  0
   -7.3968  -14.0642   11.7180 C   0  0  0  0  0  0  0  0  0  0  0  0
   -8.5167  -12.2972   11.6046 I   0  0  0  0  0  0  0  0  0  0  0  0
   -6.1017  -14.0304   12.2044 C   0  0  0  0  0  0  0  0  0  0  0  0
   -5.3555  -15.1932   12.2821 C   0  0  0  0  0  0  0  0  0  0  0  0
   -5.9005  -16.3947   11.8807 C   0  0  0  0  0  0  0  0  0  0  0  0
   -5.5014  -12.7225   12.6497 C   0  0  0  0  0  0  0  0  0  0  0  0
   -9.9506  -22.6648   12.4739 C   0  0  0  0  0  0  0  0  0  0  0  0
   -9.3202  -23.7495   13.1884 O   0  0  0  0  0  0  0  0  0  0  0  0
  -10.3306  -24.5232   13.8109 C   0  0  0  0  0  0  0  0  0  0  0  0
  -10.0445  -25.9942   14.0281 C   0  0  0  0  0  0  0  0  0  0  0  0
  -11.1497  -26.5260   14.7993 O   0  0  0  0  0  0  0  0  0  0  0  0
  -12.6800  -26.2350   14.3400 P   0  0  0  0  0  0  0  0  0  0  0  0
  -13.5787  -26.2869   15.5146 O   0  0  0  0  0  0  0  0  0  0  0  0
  -13.1408  -27.3222   13.2464 O   0  0  0  0  0  0  0  0  0  0  0  0
  -12.7015  -24.7396   13.6870 O   0  0  0  0  0  0  0  0  0  0  0  0
  -11.5661  -24.3828   12.8817 C   0  0  0  0  0  0  0  0  0  0  0  0
  -11.4862  -22.8729   12.5727 C   0  0  0  0  0  0  0  0  0  0  0  0
  -12.1474  -22.5616   11.3186 O   0  0  0  0  0  0  0  0  0  0  0  0
  -13.4882  -22.5009   11.3343 C   0  0  0  0  0  0  0  0  0  0  0  0
  -14.1038  -22.9821   12.2562 O   0  0  0  0  0  0  0  0  0  0  0  0
  -14.2262  -21.8319   10.2037 C   0  0  0  0  0  0  0  0  0  0  0  0
  -14.0681  -22.6622    8.9283 C   0  0  0  0  0  0  0  0  0  0  0  0
  -14.9315  -22.0609    7.8181 C   0  0  0  0  0  0  0  0  0  0  0  0
  1  2  1  0
  2  3  2  0
  2 10  1  0
  3  4  1  0
  3  7  1  0
  4  5  2  0
  5  6  1  0
  6  7  1  0
  6 22  1  0
  7  8  2  0
  8  9  1  0
  9 10  2  0
  9 11  1  0
 11 12  1  0
 12 13  2  0
 12 14  1  0
 14 15  2  0
 14 20  1  0
 15 16  1  0
 16 17  1  0
 16 18  2  0
 18 19  1  0
 18 21  1  0
 19 20  2  0
 22 23  1  0
 22 32  1  0
 23 24  1  0
 24 25  1  0
 24 31  1  0
 25 26  1  0
 26 27  1  0
 27 28  2  0
 27 29  1  0
 27 30  1  0
 30 31  1  0
 31 32  1  0
 32 33  1  0
 33 34  1  0
 34 35  2  0
 34 36  1  0
 36 37  1  0
 37 38  1  0
M  END
>  <Gold.Gold.Protein.RotatedWaterAtoms>  (639) 


>  <Gold.Id.Protein>  (639) 


>  <Gold.PLP.Chemscore.CHOScore>  (639) 
0.0000

>  <Gold.PLP.Chemscore.Hbond>  (639) 
1.0000

>  <Gold.PLP.Chemscore.Internal.Correction>  (639) 
0.6143

>  <Gold.PLP.Chemscore.Metal>  (639) 
0.0000

>  <Gold.PLP.Fitness>  (639) 
51.8657

>  <Gold.PLP.PLP>  (639) 
-51.1871

>  <Gold.PLP.ligand.clash>  (639) 
0.0000

>  <Gold.PLP.ligand.torsion>  (639) 
1.4678

>  <Gold.PLP.part.buried>  (639) 
-6.2666

>  <Gold.PLP.part.hbond>  (639) 
-3.0849

>  <Gold.PLP.part.metal>  (639) 
0.0000

>  <Gold.PLP.part.nonpolar>  (639) 
-41.0313

>  <Gold.PLP.part.repulsive>  (639) 
0.0379

>  <Gold.Protein.RotatedAtoms>  (639) 


>  <Gold.Protein.RotatedTorsions>  (639) 


>  <Gold.Protein.RotatedWaterAtoms>  (639) 


>  <Gold.Version>  (639) 
5.3.0

>  <PLP.Chemscore.CHOScore>  (639) 


>  <PLP.Chemscore.Hbond>  (639) 


>  <PLP.Chemscore.Internal.Correction>  (639) 


>  <PLP.Chemscore.Metal>  (639) 


>  <PLP.Fitness>  (639) 


>  <PLP.PLP>  (639) 


>  <PLP.ligand.clash>  (639) 


>  <PLP.ligand.torsion>  (639) 


>  <PLP.part.buried>  (639) 


>  <PLP.part.hbond>  (639) 


>  <PLP.part.metal>  (639) 


>  <PLP.part.nonpolar>  (639) 


>  <PLP.part.repulsive>  (639) 


>  <Version>  (639) 


$$$$
3639|Compound_2208|Compounds_3D_F|sdf|655|dock3|1
     RDKit          3D

 38 42  0  0  0  0  0  0  0  0999 V2000
   -8.4971  -20.2982    7.0449 O   0  0  0  0  0  0  0  0  0  0  0  0
   -8.6343  -19.9955    8.3584 C   0  0  0  0  0  0  0  0  0  0  0  0
   -9.0227  -20.9775    9.2822 C   0  0  0  0  0  0  0  0  0  0  0  0
   -9.3303  -22.2961    9.1983 N   0  0  0  0  0  0  0  0  0  0  0  0
   -9.6306  -22.7469   10.3814 C   0  0  0  0  0  0  0  0  0  0  0  0
   -9.5340  -21.7442   11.3009 N   0  0  0  0  0  0  0  0  0  0  0  0
   -9.1494  -20.6085   10.6333 C   0  0  0  0  0  0  0  0  0  0  0  0
   -8.9000  -19.3532   10.9862 N   0  0  0  0  0  0  0  0  0  0  0  0
   -8.5367  -18.4597   10.0821 C   0  0  0  0  0  0  0  0  0  0  0  0
   -8.4003  -18.7667    8.7981 N   0  0  0  0  0  0  0  0  0  0  0  0
   -8.2845  -17.1558   10.4894 N   0  0  0  0  0  0  0  0  0  0  0  0
   -7.1266  -16.8549   11.1091 C   0  0  0  0  0  0  0  0  0  0  0  0
   -6.3028  -17.7240   11.3124 O   0  0  0  0  0  0  0  0  0  0  0  0
   -6.8592  -15.4668   11.5426 C   0  0  0  0  0  0  0  0  0  0  0  0
   -7.7951  -14.4622   11.2929 C   0  0  0  0  0  0  0  0  0  0  0  0
   -7.5391  -13.1689   11.7010 C   0  0  0  0  0  0  0  0  0  0  0  0
   -8.9422  -11.6583   11.3280 I   0  0  0  0  0  0  0  0  0  0  0  0
   -6.3584  -12.8673   12.3567 C   0  0  0  0  0  0  0  0  0  0  0  0
   -5.4266  -13.8595   12.6064 C   0  0  0  0  0  0  0  0  0  0  0  0
   -5.6719  -15.1569   12.2084 C   0  0  0  0  0  0  0  0  0  0  0  0
   -6.0857  -11.4535   12.7991 C   0  0  0  0  0  0  0  0  0  0  0  0
   -9.7923  -21.8586   12.7378 C   0  0  0  0  0  0  0  0  0  0  0  0
   -9.1182  -23.0206   13.2670 O   0  0  0  0  0  0  0  0  0  0  0  0
  -10.0759  -23.8356   13.9196 C   0  0  0  0  0  0  0  0  0  0  0  0
   -9.8095  -25.3257   13.9576 C   0  0  0  0  0  0  0  0  0  0  0  0
  -10.8380  -25.9135   14.7917 O   0  0  0  0  0  0  0  0  0  0  0  0
  -12.4006  -25.5511   14.5377 P   0  0  0  0  0  0  0  0  0  0  0  0
  -13.1660  -25.7058   15.7947 O   0  0  0  0  0  0  0  0  0  0  0  0
  -13.0094  -26.5143   13.4010 O   0  0  0  0  0  0  0  0  0  0  0  0
  -12.4512  -23.9974   14.0415 O   0  0  0  0  0  0  0  0  0  0  0  0
  -11.4013  -23.5808   13.1531 C   0  0  0  0  0  0  0  0  0  0  0  0
  -11.3130  -22.0490   12.9871 C   0  0  0  0  0  0  0  0  0  0  0  0
  -12.0988  -21.6013   11.8517 O   0  0  0  0  0  0  0  0  0  0  0  0
  -13.4322  -21.5777   12.0038 C   0  0  0  0  0  0  0  0  0  0  0  0
  -13.9519  -22.2283   12.8796 O   0  0  0  0  0  0  0  0  0  0  0  0
  -14.2814  -20.7393   11.0838 C   0  0  0  0  0  0  0  0  0  0  0  0
  -13.3791  -19.9518   10.1316 C   0  0  0  0  0  0  0  0  0  0  0  0
  -14.2419  -19.1011    9.1981 C   0  0  0  0  0  0  0  0  0  0  0  0
  1  2  1  0
  2  3  2  0
  2 10  1  0
  3  4  1  0
  3  7  1  0
  4  5  2  0
  5  6  1  0
  6  7  1  0
  6 22  1  0
  7  8  2  0
  8  9  1  0
  9 10  2  0
  9 11  1  0
 11 12  1  0
 12 13  2  0
 12 14  1  0
 14 15  2  0
 14 20  1  0
 15 16  1  0
 16 17  1  0
 16 18  2  0
 18 19  1  0
 18 21  1  0
 19 20  2  0
 22 23  1  0
 22 32  1  0
 23 24  1  0
 24 25  1  0
 24 31  1  0
 25 26  1  0
 26 27  1  0
 27 28  2  0
 27 29  1  0
 27 30  1  0
 30 31  1  0
 31 32  1  0
 32 33  1  0
 33 34  1  0
 34 35  2  0
 34 36  1  0
 36 37  1  0
 37 38  1  0
M  END
>  <Gold.Gold.Protein.RotatedWaterAtoms>  (640) 


>  <Gold.Id.Protein>  (640) 


>  <Gold.PLP.Chemscore.CHOScore>  (640) 
0.0000

>  <Gold.PLP.Chemscore.Hbond>  (640) 
1.7632

>  <Gold.PLP.Chemscore.Internal.Correction>  (640) 
0.6143

>  <Gold.PLP.Chemscore.Metal>  (640) 
0.0000

>  <Gold.PLP.Fitness>  (640) 
57.9491

>  <Gold.PLP.PLP>  (640) 
-54.6613

>  <Gold.PLP.ligand.clash>  (640) 
0.0000

>  <Gold.PLP.ligand.torsion>  (640) 
1.3080

>  <Gold.PLP.part.buried>  (640) 
-4.0759

>  <Gold.PLP.part.hbond>  (640) 
-5.0000

>  <Gold.PLP.part.metal>  (640) 
0.0000

>  <Gold.PLP.part.nonpolar>  (640) 
-45.1121

>  <Gold.PLP.part.repulsive>  (640) 
0.0959

>  <Gold.Protein.RotatedAtoms>  (640) 


>  <Gold.Protein.RotatedTorsions>  (640) 


>  <Gold.Protein.RotatedWaterAtoms>  (640) 


>  <Gold.Version>  (640) 
5.3.0

>  <PLP.Chemscore.CHOScore>  (640) 


>  <PLP.Chemscore.Hbond>  (640) 


>  <PLP.Chemscore.Internal.Correction>  (640) 


>  <PLP.Chemscore.Metal>  (640) 


>  <PLP.Fitness>  (640) 


>  <PLP.PLP>  (640) 


>  <PLP.ligand.clash>  (640) 


>  <PLP.ligand.torsion>  (640) 


>  <PLP.part.buried>  (640) 


>  <PLP.part.hbond>  (640) 


>  <PLP.part.metal>  (640) 


>  <PLP.part.nonpolar>  (640) 


>  <PLP.part.repulsive>  (640) 


>  <Version>  (640) 


$$$$
3640|Compound_2208|Compounds_3D_F|sdf|655|dock4|1
     RDKit          3D

 38 42  0  0  0  0  0  0  0  0999 V2000
   -9.5094  -20.5802    7.7038 O   0  0  0  0  0  0  0  0  0  0  0  0
   -9.3370  -20.2381    9.0033 C   0  0  0  0  0  0  0  0  0  0  0  0
   -9.8963  -21.0159   10.0283 C   0  0  0  0  0  0  0  0  0  0  0  0
  -10.6464  -22.1457   10.0658 N   0  0  0  0  0  0  0  0  0  0  0  0
  -10.9032  -22.4542   11.3035 C   0  0  0  0  0  0  0  0  0  0  0  0
  -10.3326  -21.5404   12.1399 N   0  0  0  0  0  0  0  0  0  0  0  0
   -9.6859  -20.6149   11.3597 C   0  0  0  0  0  0  0  0  0  0  0  0
   -8.9714  -19.5221   11.5999 N   0  0  0  0  0  0  0  0  0  0  0  0
   -8.4627  -18.8183   10.6031 C   0  0  0  0  0  0  0  0  0  0  0  0
   -8.6330  -19.1639    9.3330 N   0  0  0  0  0  0  0  0  0  0  0  0
   -7.7209  -17.6804   10.8940 N   0  0  0  0  0  0  0  0  0  0  0  0
   -8.3405  -16.5620   11.3189 C   0  0  0  0  0  0  0  0  0  0  0  0
   -9.5482  -16.5481   11.4472 O   0  0  0  0  0  0  0  0  0  0  0  0
   -7.5501  -15.3511   11.6279 C   0  0  0  0  0  0  0  0  0  0  0  0
   -8.1263  -14.0867   11.4996 C   0  0  0  0  0  0  0  0  0  0  0  0
   -7.3828  -12.9609   11.7904 C   0  0  0  0  0  0  0  0  0  0  0  0
   -8.2449  -11.0610   11.5991 I   0  0  0  0  0  0  0  0  0  0  0  0
   -6.0695  -13.0837   12.2090 C   0  0  0  0  0  0  0  0  0  0  0  0
   -5.4929  -14.3352   12.3375 C   0  0  0  0  0  0  0  0  0  0  0  0
   -6.2260  -15.4685   12.0549 C   0  0  0  0  0  0  0  0  0  0  0  0
   -5.2641  -11.8506   12.5246 C   0  0  0  0  0  0  0  0  0  0  0  0
  -10.3972  -21.5461   13.6029 C   0  0  0  0  0  0  0  0  0  0  0  0
   -9.6952  -22.6965   14.1210 O   0  0  0  0  0  0  0  0  0  0  0  0
  -10.5810  -23.4248   14.9528 C   0  0  0  0  0  0  0  0  0  0  0  0
  -10.3598  -24.9186   15.0636 C   0  0  0  0  0  0  0  0  0  0  0  0
  -11.2840  -25.4052   16.0677 O   0  0  0  0  0  0  0  0  0  0  0  0
  -12.8541  -24.9964   15.9980 P   0  0  0  0  0  0  0  0  0  0  0  0
  -13.4466  -25.0334   17.3536 O   0  0  0  0  0  0  0  0  0  0  0  0
  -13.6420  -26.0084   15.0256 O   0  0  0  0  0  0  0  0  0  0  0  0
  -12.9218  -23.4792   15.4010 O   0  0  0  0  0  0  0  0  0  0  0  0
  -11.9894  -23.1678   14.3529 C   0  0  0  0  0  0  0  0  0  0  0  0
  -11.8754  -21.6558   14.0655 C   0  0  0  0  0  0  0  0  0  0  0  0
  -12.7931  -21.2541   13.0151 O   0  0  0  0  0  0  0  0  0  0  0  0
  -12.6972  -19.9910   12.5711 C   0  0  0  0  0  0  0  0  0  0  0  0
  -11.8151  -19.2728   12.9790 O   0  0  0  0  0  0  0  0  0  0  0  0
  -13.6880  -19.4685   11.5633 C   0  0  0  0  0  0  0  0  0  0  0  0
  -13.1001  -19.5940   10.1562 C   0  0  0  0  0  0  0  0  0  0  0  0
  -13.9920  -18.8480    9.1625 C   0  0  0  0  0  0  0  0  0  0  0  0
  1  2  1  0
  2  3  2  0
  2 10  1  0
  3  4  1  0
  3  7  1  0
  4  5  2  0
  5  6  1  0
  6  7  1  0
  6 22  1  0
  7  8  2  0
  8  9  1  0
  9 10  2  0
  9 11  1  0
 11 12  1  0
 12 13  2  0
 12 14  1  0
 14 15  2  0
 14 20  1  0
 15 16  1  0
 16 17  1  0
 16 18  2  0
 18 19  1  0
 18 21  1  0
 19 20  2  0
 22 23  1  0
 22 32  1  0
 23 24  1  0
 24 25  1  0
 24 31  1  0
 25 26  1  0
 26 27  1  0
 27 28  2  0
 27 29  1  0
 27 30  1  0
 30 31  1  0
 31 32  1  0
 32 33  1  0
 33 34  1  0
 34 35  2  0
 34 36  1  0
 36 37  1  0
 37 38  1  0
M  END
>  <Gold.Gold.Protein.RotatedWaterAtoms>  (641) 


>  <Gold.Id.Protein>  (641) 


>  <Gold.PLP.Chemscore.CHOScore>  (641) 
0.0000

>  <Gold.PLP.Chemscore.Hbond>  (641) 
1.2480

>  <Gold.PLP.Chemscore.Internal.Correction>  (641) 
0.6143

>  <Gold.PLP.Chemscore.Metal>  (641) 
0.0000

>  <Gold.PLP.Fitness>  (641) 
63.6074

>  <Gold.PLP.PLP>  (641) 
-62.2712

>  <Gold.PLP.ligand.clash>  (641) 
0.0000

>  <Gold.PLP.ligand.torsion>  (641) 
1.5110

>  <Gold.PLP.part.buried>  (641) 
-3.8292

>  <Gold.PLP.part.hbond>  (641) 
-4.6444

>  <Gold.PLP.part.metal>  (641) 
0.0000

>  <Gold.PLP.part.nonpolar>  (641) 
-55.1372

>  <Gold.PLP.part.repulsive>  (641) 
0.2088

>  <Gold.Protein.RotatedAtoms>  (641) 


>  <Gold.Protein.RotatedTorsions>  (641) 


>  <Gold.Protein.RotatedWaterAtoms>  (641) 


>  <Gold.Version>  (641) 
5.3.0

>  <PLP.Chemscore.CHOScore>  (641) 


>  <PLP.Chemscore.Hbond>  (641) 


>  <PLP.Chemscore.Internal.Correction>  (641) 


>  <PLP.Chemscore.Metal>  (641) 


>  <PLP.Fitness>  (641) 


>  <PLP.PLP>  (641) 


>  <PLP.ligand.clash>  (641) 


>  <PLP.ligand.torsion>  (641) 


>  <PLP.part.buried>  (641) 


>  <PLP.part.hbond>  (641) 


>  <PLP.part.metal>  (641) 


>  <PLP.part.nonpolar>  (641) 


>  <PLP.part.repulsive>  (641) 


>  <Version>  (641) 


$$$$
3641|Compound_2208|Compounds_3D_F|sdf|655|dock5|1
     RDKit          3D

 38 42  0  0  0  0  0  0  0  0999 V2000
   -7.8534  -20.6864    8.6222 O   0  0  0  0  0  0  0  0  0  0  0  0
   -8.4712  -20.0597    9.6523 C   0  0  0  0  0  0  0  0  0  0  0  0
   -9.1353  -20.7973   10.6439 C   0  0  0  0  0  0  0  0  0  0  0  0
   -9.3446  -22.1187   10.8689 N   0  0  0  0  0  0  0  0  0  0  0  0
  -10.0401  -22.2677   11.9585 C   0  0  0  0  0  0  0  0  0  0  0  0
  -10.3211  -21.0491   12.5026 N   0  0  0  0  0  0  0  0  0  0  0  0
   -9.7595  -20.0957   11.6907 C   0  0  0  0  0  0  0  0  0  0  0  0
   -9.7004  -18.7696   11.7049 N   0  0  0  0  0  0  0  0  0  0  0  0
   -9.0637  -18.1143   10.7495 C   0  0  0  0  0  0  0  0  0  0  0  0
   -8.4572  -18.7372    9.7466 N   0  0  0  0  0  0  0  0  0  0  0  0
   -9.0237  -16.7265   10.7981 N   0  0  0  0  0  0  0  0  0  0  0  0
   -8.0646  -16.1042   11.5109 C   0  0  0  0  0  0  0  0  0  0  0  0
   -7.2347  -16.7565   12.1118 O   0  0  0  0  0  0  0  0  0  0  0  0
   -8.0229  -14.6271   11.5623 C   0  0  0  0  0  0  0  0  0  0  0  0
   -6.8440  -13.9714   11.9193 C   0  0  0  0  0  0  0  0  0  0  0  0
   -6.8122  -12.5923   11.9645 C   0  0  0  0  0  0  0  0  0  0  0  0
   -5.0437  -11.6048   12.4997 I   0  0  0  0  0  0  0  0  0  0  0  0
   -7.9453  -11.8602   11.6565 C   0  0  0  0  0  0  0  0  0  0  0  0
   -9.1173  -12.5052   11.3024 C   0  0  0  0  0  0  0  0  0  0  0  0
   -9.1615  -13.8825   11.2484 C   0  0  0  0  0  0  0  0  0  0  0  0
   -7.9033  -10.3553   11.7081 C   0  0  0  0  0  0  0  0  0  0  0  0
  -11.0820  -20.8027   13.7293 C   0  0  0  0  0  0  0  0  0  0  0  0
  -10.4516  -21.4739   14.8415 O   0  0  0  0  0  0  0  0  0  0  0  0
  -11.4097  -22.3158   15.4583 C   0  0  0  0  0  0  0  0  0  0  0  0
  -10.8967  -23.5592   16.1535 C   0  0  0  0  0  0  0  0  0  0  0  0
  -12.0319  -24.1649   16.8193 O   0  0  0  0  0  0  0  0  0  0  0  0
  -13.4166  -24.4132   16.0079 P   0  0  0  0  0  0  0  0  0  0  0  0
  -14.5594  -24.4187   16.9483 O   0  0  0  0  0  0  0  0  0  0  0  0
  -13.3467  -25.8145   15.2192 O   0  0  0  0  0  0  0  0  0  0  0  0
  -13.5717  -23.1814   14.9490 O   0  0  0  0  0  0  0  0  0  0  0  0
  -12.3634  -22.7391   14.3091 C   0  0  0  0  0  0  0  0  0  0  0  0
  -12.5150  -21.3836   13.5871 C   0  0  0  0  0  0  0  0  0  0  0  0
  -12.8771  -21.5723   12.1942 O   0  0  0  0  0  0  0  0  0  0  0  0
  -14.1616  -21.8599   11.9312 C   0  0  0  0  0  0  0  0  0  0  0  0
  -14.8444  -22.3972   12.7711 O   0  0  0  0  0  0  0  0  0  0  0  0
  -14.7529  -21.5122   10.5896 C   0  0  0  0  0  0  0  0  0  0  0  0
  -14.6860  -19.9982   10.3787 C   0  0  0  0  0  0  0  0  0  0  0  0
  -14.3924  -19.7008    8.9074 C   0  0  0  0  0  0  0  0  0  0  0  0
  1  2  1  0
  2  3  2  0
  2 10  1  0
  3  4  1  0
  3  7  1  0
  4  5  2  0
  5  6  1  0
  6  7  1  0
  6 22  1  0
  7  8  2  0
  8  9  1  0
  9 10  2  0
  9 11  1  0
 11 12  1  0
 12 13  2  0
 12 14  1  0
 14 15  2  0
 14 20  1  0
 15 16  1  0
 16 17  1  0
 16 18  2  0
 18 19  1  0
 18 21  1  0
 19 20  2  0
 22 23  1  0
 22 32  1  0
 23 24  1  0
 24 25  1  0
 24 31  1  0
 25 26  1  0
 26 27  1  0
 27 28  2  0
 27 29  1  0
 27 30  1  0
 30 31  1  0
 31 32  1  0
 32 33  1  0
 33 34  1  0
 34 35  2  0
 34 36  1  0
 36 37  1  0
 37 38  1  0
M  END
>  <Gold.Gold.Protein.RotatedWaterAtoms>  (642) 


>  <Gold.Id.Protein>  (642) 


>  <Gold.PLP.Chemscore.CHOScore>  (642) 
0.0000

>  <Gold.PLP.Chemscore.Hbond>  (642) 
0.8894

>  <Gold.PLP.Chemscore.Internal.Correction>  (642) 
0.5640

>  <Gold.PLP.Chemscore.Metal>  (642) 
0.0000

>  <Gold.PLP.Fitness>  (642) 
64.1339

>  <Gold.PLP.PLP>  (642) 
-64.1892

>  <Gold.PLP.ligand.clash>  (642) 
0.0000

>  <Gold.PLP.ligand.torsion>  (642) 
1.6437

>  <Gold.PLP.part.buried>  (642) 
0.5933

>  <Gold.PLP.part.hbond>  (642) 
-4.1373

>  <Gold.PLP.part.metal>  (642) 
0.0000

>  <Gold.PLP.part.nonpolar>  (642) 
-61.3684

>  <Gold.PLP.part.repulsive>  (642) 
0.4292

>  <Gold.Protein.RotatedAtoms>  (642) 


>  <Gold.Protein.RotatedTorsions>  (642) 


>  <Gold.Protein.RotatedWaterAtoms>  (642) 


>  <Gold.Version>  (642) 
5.3.0

>  <PLP.Chemscore.CHOScore>  (642) 


>  <PLP.Chemscore.Hbond>  (642) 


>  <PLP.Chemscore.Internal.Correction>  (642) 


>  <PLP.Chemscore.Metal>  (642) 


>  <PLP.Fitness>  (642) 


>  <PLP.PLP>  (642) 


>  <PLP.ligand.clash>  (642) 


>  <PLP.ligand.torsion>  (642) 


>  <PLP.part.buried>  (642) 


>  <PLP.part.hbond>  (642) 


>  <PLP.part.metal>  (642) 


>  <PLP.part.nonpolar>  (642) 


>  <PLP.part.repulsive>  (642) 


>  <Version>  (642) 


$$$$
3642|Compound_2208|Compounds_3D_F|sdf|655|dock6|1
     RDKit          3D

 38 42  0  0  0  0  0  0  0  0999 V2000
   -9.5247  -20.9422    8.1137 O   0  0  0  0  0  0  0  0  0  0  0  0
   -9.4782  -20.4350    9.3692 C   0  0  0  0  0  0  0  0  0  0  0  0
  -10.1656  -21.0612   10.4198 C   0  0  0  0  0  0  0  0  0  0  0  0
  -10.9507  -22.1629   10.5219 N   0  0  0  0  0  0  0  0  0  0  0  0
  -11.3448  -22.3012   11.7542 C   0  0  0  0  0  0  0  0  0  0  0  0
  -10.8361  -21.2954   12.5222 N   0  0  0  0  0  0  0  0  0  0  0  0
  -10.0827  -20.4922   11.7032 C   0  0  0  0  0  0  0  0  0  0  0  0
   -9.3632  -19.3900   11.8759 N   0  0  0  0  0  0  0  0  0  0  0  0
   -8.7314  -18.8325   10.8571 C   0  0  0  0  0  0  0  0  0  0  0  0
   -8.7789  -19.3394    9.6314 N   0  0  0  0  0  0  0  0  0  0  0  0
   -7.9886  -17.6794   11.0767 N   0  0  0  0  0  0  0  0  0  0  0  0
   -8.5817  -16.5820   11.5857 C   0  0  0  0  0  0  0  0  0  0  0  0
   -9.7666  -16.6003   11.8522 O   0  0  0  0  0  0  0  0  0  0  0  0
   -7.7903  -15.3549   11.8189 C   0  0  0  0  0  0  0  0  0  0  0  0
   -8.3741  -14.1001   11.6403 C   0  0  0  0  0  0  0  0  0  0  0  0
   -7.6296  -12.9591   11.8605 C   0  0  0  0  0  0  0  0  0  0  0  0
   -8.5032  -11.0736   11.5936 I   0  0  0  0  0  0  0  0  0  0  0  0
   -6.3077  -13.0571   12.2579 C   0  0  0  0  0  0  0  0  0  0  0  0
   -5.7235  -14.2989   12.4360 C   0  0  0  0  0  0  0  0  0  0  0  0
   -6.4575  -15.4470   12.2242 C   0  0  0  0  0  0  0  0  0  0  0  0
   -5.5012  -11.8074   12.4963 C   0  0  0  0  0  0  0  0  0  0  0  0
  -11.0532  -21.1072   13.9581 C   0  0  0  0  0  0  0  0  0  0  0  0
  -10.3110  -22.0982   14.7010 O   0  0  0  0  0  0  0  0  0  0  0  0
  -11.2118  -22.7923   15.5460 C   0  0  0  0  0  0  0  0  0  0  0  0
  -10.8729  -24.2265   15.8939 C   0  0  0  0  0  0  0  0  0  0  0  0
  -11.8509  -24.6627   16.8697 O   0  0  0  0  0  0  0  0  0  0  0  0
  -13.4349  -24.4296   16.5977 P   0  0  0  0  0  0  0  0  0  0  0  0
  -14.1609  -24.3409   17.8843 O   0  0  0  0  0  0  0  0  0  0  0  0
  -14.0242  -25.6403   15.7160 O   0  0  0  0  0  0  0  0  0  0  0  0
  -13.5728  -23.0233   15.7815 O   0  0  0  0  0  0  0  0  0  0  0  0
  -12.5664  -22.7649   14.7887 C   0  0  0  0  0  0  0  0  0  0  0  0
  -12.5563  -21.3028   14.2948 C   0  0  0  0  0  0  0  0  0  0  0  0
  -13.3905  -21.1444   13.1175 O   0  0  0  0  0  0  0  0  0  0  0  0
  -13.2759  -19.9920   12.4389 C   0  0  0  0  0  0  0  0  0  0  0  0
  -12.5921  -19.0978   12.8784 O   0  0  0  0  0  0  0  0  0  0  0  0
  -13.9982  -19.8131   11.1287 C   0  0  0  0  0  0  0  0  0  0  0  0
  -13.0699  -19.1298   10.1225 C   0  0  0  0  0  0  0  0  0  0  0  0
  -13.8878  -18.2025    9.2222 C   0  0  0  0  0  0  0  0  0  0  0  0
  1  2  1  0
  2  3  2  0
  2 10  1  0
  3  4  1  0
  3  7  1  0
  4  5  2  0
  5  6  1  0
  6  7  1  0
  6 22  1  0
  7  8  2  0
  8  9  1  0
  9 10  2  0
  9 11  1  0
 11 12  1  0
 12 13  2  0
 12 14  1  0
 14 15  2  0
 14 20  1  0
 15 16  1  0
 16 17  1  0
 16 18  2  0
 18 19  1  0
 18 21  1  0
 19 20  2  0
 22 23  1  0
 22 32  1  0
 23 24  1  0
 24 25  1  0
 24 31  1  0
 25 26  1  0
 26 27  1  0
 27 28  2  0
 27 29  1  0
 27 30  1  0
 30 31  1  0
 31 32  1  0
 32 33  1  0
 33 34  1  0
 34 35  2  0
 34 36  1  0
 36 37  1  0
 37 38  1  0
M  END
>  <Gold.Gold.Protein.RotatedWaterAtoms>  (643) 


>  <Gold.Id.Protein>  (643) 


>  <Gold.PLP.Chemscore.CHOScore>  (643) 
0.0000

>  <Gold.PLP.Chemscore.Hbond>  (643) 
1.3043

>  <Gold.PLP.Chemscore.Internal.Correction>  (643) 
0.5640

>  <Gold.PLP.Chemscore.Metal>  (643) 
0.0000

>  <Gold.PLP.Fitness>  (643) 
64.4285

>  <Gold.PLP.PLP>  (643) 
-64.9532

>  <Gold.PLP.ligand.clash>  (643) 
1.1962

>  <Gold.PLP.ligand.torsion>  (643) 
1.9027

>  <Gold.PLP.part.buried>  (643) 
-4.1743

>  <Gold.PLP.part.hbond>  (643) 
-3.8171

>  <Gold.PLP.part.metal>  (643) 
0.0000

>  <Gold.PLP.part.nonpolar>  (643) 
-58.8844

>  <Gold.PLP.part.repulsive>  (643) 
0.4145

>  <Gold.Protein.RotatedAtoms>  (643) 


>  <Gold.Protein.RotatedTorsions>  (643) 


>  <Gold.Protein.RotatedWaterAtoms>  (643) 


>  <Gold.Version>  (643) 
5.3.0

>  <PLP.Chemscore.CHOScore>  (643) 


>  <PLP.Chemscore.Hbond>  (643) 


>  <PLP.Chemscore.Internal.Correction>  (643) 


>  <PLP.Chemscore.Metal>  (643) 


>  <PLP.Fitness>  (643) 


>  <PLP.PLP>  (643) 


>  <PLP.ligand.clash>  (643) 


>  <PLP.ligand.torsion>  (643) 


>  <PLP.part.buried>  (643) 


>  <PLP.part.hbond>  (643) 


>  <PLP.part.metal>  (643) 


>  <PLP.part.nonpolar>  (643) 


>  <PLP.part.repulsive>  (643) 


>  <Version>  (643) 


$$$$
3643|Compound_2208|Compounds_3D_F|sdf|655|dock7|1
     RDKit          3D

 38 42  0  0  0  0  0  0  0  0999 V2000
   -7.2285  -19.9043    8.8436 O   0  0  0  0  0  0  0  0  0  0  0  0
   -8.1112  -19.3266    9.6937 C   0  0  0  0  0  0  0  0  0  0  0  0
   -9.0160  -20.1094   10.4265 C   0  0  0  0  0  0  0  0  0  0  0  0
   -9.2674  -21.4393   10.5197 N   0  0  0  0  0  0  0  0  0  0  0  0
  -10.2344  -21.6389   11.3671 C   0  0  0  0  0  0  0  0  0  0  0  0
  -10.6650  -20.4475   11.8725 N   0  0  0  0  0  0  0  0  0  0  0  0
   -9.9101  -19.4577   11.2946 C   0  0  0  0  0  0  0  0  0  0  0  0
   -9.8688  -18.1342   11.3901 N   0  0  0  0  0  0  0  0  0  0  0  0
   -8.9996  -17.4354   10.6803 C   0  0  0  0  0  0  0  0  0  0  0  0
   -8.1353  -18.0105    9.8535 N   0  0  0  0  0  0  0  0  0  0  0  0
   -8.9867  -16.0520   10.8067 N   0  0  0  0  0  0  0  0  0  0  0  0
   -7.9364  -15.4376   11.3851 C   0  0  0  0  0  0  0  0  0  0  0  0
   -7.0005  -16.0932   11.7969 O   0  0  0  0  0  0  0  0  0  0  0  0
   -7.9236  -13.9651   11.5194 C   0  0  0  0  0  0  0  0  0  0  0  0
   -6.7230  -13.2932   11.7524 C   0  0  0  0  0  0  0  0  0  0  0  0
   -6.7185  -11.9186   11.8760 C   0  0  0  0  0  0  0  0  0  0  0  0
   -4.9176  -10.9066   12.2254 I   0  0  0  0  0  0  0  0  0  0  0  0
   -7.9004  -11.2069   11.7689 C   0  0  0  0  0  0  0  0  0  0  0  0
   -9.0940  -11.8681   11.5384 C   0  0  0  0  0  0  0  0  0  0  0  0
   -9.1120  -13.2408   11.4080 C   0  0  0  0  0  0  0  0  0  0  0  0
   -7.8879   -9.7067   11.9049 C   0  0  0  0  0  0  0  0  0  0  0  0
  -11.7360  -20.2588   12.8532 C   0  0  0  0  0  0  0  0  0  0  0  0
  -11.2064  -20.3891   14.1901 O   0  0  0  0  0  0  0  0  0  0  0  0
  -11.9506  -21.3832   14.8720 C   0  0  0  0  0  0  0  0  0  0  0  0
  -11.2386  -22.1608   15.9587 C   0  0  0  0  0  0  0  0  0  0  0  0
  -12.2344  -22.9997   16.5940 O   0  0  0  0  0  0  0  0  0  0  0  0
  -13.2205  -23.9219   15.6916 P   0  0  0  0  0  0  0  0  0  0  0  0
  -14.4878  -24.1656   16.4159 O   0  0  0  0  0  0  0  0  0  0  0  0
  -12.5034  -25.3220   15.3514 O   0  0  0  0  0  0  0  0  0  0  0  0
  -13.5146  -23.0943   14.3162 O   0  0  0  0  0  0  0  0  0  0  0  0
  -12.4043  -22.3693   13.7625 C   0  0  0  0  0  0  0  0  0  0  0  0
  -12.8173  -21.3584   12.6719 C   0  0  0  0  0  0  0  0  0  0  0  0
  -12.7500  -21.9587   11.3521 O   0  0  0  0  0  0  0  0  0  0  0  0
  -13.7202  -22.8273   11.0266 C   0  0  0  0  0  0  0  0  0  0  0  0
  -14.4230  -23.2990   11.8892 O   0  0  0  0  0  0  0  0  0  0  0  0
  -13.9345  -23.2137    9.5860 C   0  0  0  0  0  0  0  0  0  0  0  0
  -13.0937  -22.3081    8.6836 C   0  0  0  0  0  0  0  0  0  0  0  0
  -13.8831  -21.9767    7.4162 C   0  0  0  0  0  0  0  0  0  0  0  0
  1  2  1  0
  2  3  2  0
  2 10  1  0
  3  4  1  0
  3  7  1  0
  4  5  2  0
  5  6  1  0
  6  7  1  0
  6 22  1  0
  7  8  2  0
  8  9  1  0
  9 10  2  0
  9 11  1  0
 11 12  1  0
 12 13  2  0
 12 14  1  0
 14 15  2  0
 14 20  1  0
 15 16  1  0
 16 17  1  0
 16 18  2  0
 18 19  1  0
 18 21  1  0
 19 20  2  0
 22 23  1  0
 22 32  1  0
 23 24  1  0
 24 25  1  0
 24 31  1  0
 25 26  1  0
 26 27  1  0
 27 28  2  0
 27 29  1  0
 27 30  1  0
 30 31  1  0
 31 32  1  0
 32 33  1  0
 33 34  1  0
 34 35  2  0
 34 36  1  0
 36 37  1  0
 37 38  1  0
M  END
>  <Gold.Gold.Protein.RotatedWaterAtoms>  (644) 


>  <Gold.Id.Protein>  (644) 


>  <Gold.PLP.Chemscore.CHOScore>  (644) 
0.0000

>  <Gold.PLP.Chemscore.Hbond>  (644) 
2.5648

>  <Gold.PLP.Chemscore.Internal.Correction>  (644) 
0.5640

>  <Gold.PLP.Chemscore.Metal>  (644) 
0.0000

>  <Gold.PLP.Fitness>  (644) 
60.1991

>  <Gold.PLP.PLP>  (644) 
-63.7154

>  <Gold.PLP.ligand.clash>  (644) 
7.4832

>  <Gold.PLP.ligand.torsion>  (644) 
2.1457

>  <Gold.PLP.part.buried>  (644) 
-4.6163

>  <Gold.PLP.part.hbond>  (644) 
-5.8954

>  <Gold.PLP.part.metal>  (644) 
0.0000

>  <Gold.PLP.part.nonpolar>  (644) 
-55.6099

>  <Gold.PLP.part.repulsive>  (644) 
0.3027

>  <Gold.Protein.RotatedAtoms>  (644) 


>  <Gold.Protein.RotatedTorsions>  (644) 


>  <Gold.Protein.RotatedWaterAtoms>  (644) 


>  <Gold.Version>  (644) 
5.3.0

>  <PLP.Chemscore.CHOScore>  (644) 


>  <PLP.Chemscore.Hbond>  (644) 


>  <PLP.Chemscore.Internal.Correction>  (644) 


>  <PLP.Chemscore.Metal>  (644) 


>  <PLP.Fitness>  (644) 


>  <PLP.PLP>  (644) 


>  <PLP.ligand.clash>  (644) 


>  <PLP.ligand.torsion>  (644) 


>  <PLP.part.buried>  (644) 


>  <PLP.part.hbond>  (644) 


>  <PLP.part.metal>  (644) 


>  <PLP.part.nonpolar>  (644) 


>  <PLP.part.repulsive>  (644) 


>  <Version>  (644) 


$$$$
3644|Compound_2208|Compounds_3D_F|sdf|655|dock8|1
     RDKit          3D

 38 42  0  0  0  0  0  0  0  0999 V2000
   -8.5407  -19.9158    7.5828 O   0  0  0  0  0  0  0  0  0  0  0  0
   -8.9189  -19.5319    8.8258 C   0  0  0  0  0  0  0  0  0  0  0  0
   -9.3581  -20.4779    9.7643 C   0  0  0  0  0  0  0  0  0  0  0  0
   -9.5210  -21.8247    9.7549 N   0  0  0  0  0  0  0  0  0  0  0  0
   -9.9665  -22.2152   10.9133 C   0  0  0  0  0  0  0  0  0  0  0  0
  -10.1173  -21.1417   11.7410 N   0  0  0  0  0  0  0  0  0  0  0  0
   -9.7385  -20.0243   11.0398 C   0  0  0  0  0  0  0  0  0  0  0  0
   -9.6707  -18.7265   11.3107 N   0  0  0  0  0  0  0  0  0  0  0  0
   -9.2510  -17.8694   10.3959 C   0  0  0  0  0  0  0  0  0  0  0  0
   -8.8780  -18.2554    9.1820 N   0  0  0  0  0  0  0  0  0  0  0  0
   -9.1941  -16.5188   10.7162 N   0  0  0  0  0  0  0  0  0  0  0  0
   -8.0036  -15.8918   10.7852 C   0  0  0  0  0  0  0  0  0  0  0  0
   -6.9793  -16.5075   10.5678 O   0  0  0  0  0  0  0  0  0  0  0  0
   -7.9439  -14.4544   11.1265 C   0  0  0  0  0  0  0  0  0  0  0  0
   -6.7502  -13.8906   11.5788 C   0  0  0  0  0  0  0  0  0  0  0  0
   -6.7017  -12.5480   11.8949 C   0  0  0  0  0  0  0  0  0  0  0  0
   -4.9110  -11.6983   12.5739 I   0  0  0  0  0  0  0  0  0  0  0  0
   -7.8326  -11.7614   11.7638 C   0  0  0  0  0  0  0  0  0  0  0  0
   -9.0192  -12.3153   11.3163 C   0  0  0  0  0  0  0  0  0  0  0  0
   -9.0802  -13.6544   10.9922 C   0  0  0  0  0  0  0  0  0  0  0  0
   -7.7722  -10.2968   12.1107 C   0  0  0  0  0  0  0  0  0  0  0  0
  -10.5951  -21.1750   13.1248 C   0  0  0  0  0  0  0  0  0  0  0  0
   -9.8130  -22.1157   13.8919 O   0  0  0  0  0  0  0  0  0  0  0  0
  -10.6949  -23.0502   14.4886 C   0  0  0  0  0  0  0  0  0  0  0  0
  -10.1579  -24.4410   14.7533 C   0  0  0  0  0  0  0  0  0  0  0  0
  -11.1836  -25.1525   15.4886 O   0  0  0  0  0  0  0  0  0  0  0  0
  -12.7180  -25.1518   14.9569 P   0  0  0  0  0  0  0  0  0  0  0  0
  -13.6466  -25.3476   16.0925 O   0  0  0  0  0  0  0  0  0  0  0  0
  -12.9229  -26.3219   13.8709 O   0  0  0  0  0  0  0  0  0  0  0  0
  -12.9791  -23.6959   14.2677 O   0  0  0  0  0  0  0  0  0  0  0  0
  -11.8905  -23.1514   13.5038 C   0  0  0  0  0  0  0  0  0  0  0  0
  -12.0706  -21.6572   13.1623 C   0  0  0  0  0  0  0  0  0  0  0  0
  -12.7178  -21.4912   11.8736 O   0  0  0  0  0  0  0  0  0  0  0  0
  -14.0059  -21.8584   11.7858 C   0  0  0  0  0  0  0  0  0  0  0  0
  -14.5869  -22.2622   12.7655 O   0  0  0  0  0  0  0  0  0  0  0  0
  -14.7282  -21.7662   10.4667 C   0  0  0  0  0  0  0  0  0  0  0  0
  -13.7167  -21.5136    9.3468 C   0  0  0  0  0  0  0  0  0  0  0  0
  -14.4615  -21.2065    8.0467 C   0  0  0  0  0  0  0  0  0  0  0  0
  1  2  1  0
  2  3  2  0
  2 10  1  0
  3  4  1  0
  3  7  1  0
  4  5  2  0
  5  6  1  0
  6  7  1  0
  6 22  1  0
  7  8  2  0
  8  9  1  0
  9 10  2  0
  9 11  1  0
 11 12  1  0
 12 13  2  0
 12 14  1  0
 14 15  2  0
 14 20  1  0
 15 16  1  0
 16 17  1  0
 16 18  2  0
 18 19  1  0
 18 21  1  0
 19 20  2  0
 22 23  1  0
 22 32  1  0
 23 24  1  0
 24 25  1  0
 24 31  1  0
 25 26  1  0
 26 27  1  0
 27 28  2  0
 27 29  1  0
 27 30  1  0
 30 31  1  0
 31 32  1  0
 32 33  1  0
 33 34  1  0
 34 35  2  0
 34 36  1  0
 36 37  1  0
 37 38  1  0
M  END
>  <Gold.Gold.Protein.RotatedWaterAtoms>  (645) 


>  <Gold.Id.Protein>  (645) 


>  <Gold.PLP.Chemscore.CHOScore>  (645) 
0.0000

>  <Gold.PLP.Chemscore.Hbond>  (645) 
2.0293

>  <Gold.PLP.Chemscore.Internal.Correction>  (645) 
0.5640

>  <Gold.PLP.Chemscore.Metal>  (645) 
0.0000

>  <Gold.PLP.Fitness>  (645) 
59.5247

>  <Gold.PLP.PLP>  (645) 
-54.9009

>  <Gold.PLP.ligand.clash>  (645) 
0.0000

>  <Gold.PLP.ligand.torsion>  (645) 
1.0140

>  <Gold.PLP.part.buried>  (645) 
0.5902

>  <Gold.PLP.part.hbond>  (645) 
-5.9827

>  <Gold.PLP.part.metal>  (645) 
0.0000

>  <Gold.PLP.part.nonpolar>  (645) 
-48.8470

>  <Gold.PLP.part.repulsive>  (645) 
0.2051

>  <Gold.Protein.RotatedAtoms>  (645) 


>  <Gold.Protein.RotatedTorsions>  (645) 


>  <Gold.Protein.RotatedWaterAtoms>  (645) 


>  <Gold.Version>  (645) 
5.3.0

>  <PLP.Chemscore.CHOScore>  (645) 


>  <PLP.Chemscore.Hbond>  (645) 


>  <PLP.Chemscore.Internal.Correction>  (645) 


>  <PLP.Chemscore.Metal>  (645) 


>  <PLP.Fitness>  (645) 


>  <PLP.PLP>  (645) 


>  <PLP.ligand.clash>  (645) 


>  <PLP.ligand.torsion>  (645) 


>  <PLP.part.buried>  (645) 


>  <PLP.part.hbond>  (645) 


>  <PLP.part.metal>  (645) 


>  <PLP.part.nonpolar>  (645) 


>  <PLP.part.repulsive>  (645) 


>  <Version>  (645) 


$$$$
3645|Compound_2208|Compounds_3D_F|sdf|655|dock9|1
     RDKit          3D

 38 42  0  0  0  0  0  0  0  0999 V2000
  -13.5068  -18.8002    9.7298 O   0  0  0  0  0  0  0  0  0  0  0  0
  -12.2802  -18.9618   10.2821 C   0  0  0  0  0  0  0  0  0  0  0  0
  -11.7720  -20.2451   10.5335 C   0  0  0  0  0  0  0  0  0  0  0  0
  -12.2355  -21.5066   10.3482 N   0  0  0  0  0  0  0  0  0  0  0  0
  -11.3453  -22.3603   10.7627 C   0  0  0  0  0  0  0  0  0  0  0  0
  -10.2522  -21.6993   11.2406 N   0  0  0  0  0  0  0  0  0  0  0  0
  -10.4931  -20.3547   11.1080 C   0  0  0  0  0  0  0  0  0  0  0  0
   -9.8154  -19.2490   11.3917 N   0  0  0  0  0  0  0  0  0  0  0  0
  -10.3329  -18.0591   11.1382 C   0  0  0  0  0  0  0  0  0  0  0  0
  -11.5336  -17.9108   10.5924 N   0  0  0  0  0  0  0  0  0  0  0  0
   -9.5938  -16.9248   11.4492 N   0  0  0  0  0  0  0  0  0  0  0  0
   -8.2606  -16.9145   11.2550 C   0  0  0  0  0  0  0  0  0  0  0  0
   -7.7042  -17.8975   10.8084 O   0  0  0  0  0  0  0  0  0  0  0  0
   -7.4747  -15.7067   11.5867 C   0  0  0  0  0  0  0  0  0  0  0  0
   -8.0504  -14.4413   11.4666 C   0  0  0  0  0  0  0  0  0  0  0  0
   -7.3111  -13.3184   11.7786 C   0  0  0  0  0  0  0  0  0  0  0  0
   -8.1726  -11.4170   11.5998 I   0  0  0  0  0  0  0  0  0  0  0  0
   -6.0024  -13.4452   12.2100 C   0  0  0  0  0  0  0  0  0  0  0  0
   -5.4262  -14.6976   12.3304 C   0  0  0  0  0  0  0  0  0  0  0  0
   -6.1553  -15.8281   12.0267 C   0  0  0  0  0  0  0  0  0  0  0  0
   -5.2014  -12.2152   12.5486 C   0  0  0  0  0  0  0  0  0  0  0  0
   -9.0424  -22.3120   11.7931 C   0  0  0  0  0  0  0  0  0  0  0  0
   -8.3809  -23.0961   10.7770 O   0  0  0  0  0  0  0  0  0  0  0  0
   -8.2159  -24.4155   11.2660 C   0  0  0  0  0  0  0  0  0  0  0  0
   -8.1886  -25.5355   10.2473 C   0  0  0  0  0  0  0  0  0  0  0  0
   -7.8676  -26.7500   10.9691 O   0  0  0  0  0  0  0  0  0  0  0  0
   -8.6823  -27.1360   12.3199 P   0  0  0  0  0  0  0  0  0  0  0  0
   -7.8381  -27.9786   13.1959 O   0  0  0  0  0  0  0  0  0  0  0  0
  -10.0350  -27.9208   11.9394 O   0  0  0  0  0  0  0  0  0  0  0  0
   -9.0413  -25.7335   13.0728 O   0  0  0  0  0  0  0  0  0  0  0  0
   -9.4168  -24.6361   12.2244 C   0  0  0  0  0  0  0  0  0  0  0  0
   -9.4201  -23.2748   12.9513 C   0  0  0  0  0  0  0  0  0  0  0  0
  -10.7349  -22.9730   13.4871 O   0  0  0  0  0  0  0  0  0  0  0  0
  -10.9118  -23.1495   14.8059 C   0  0  0  0  0  0  0  0  0  0  0  0
  -10.0540  -23.6903   15.4632 O   0  0  0  0  0  0  0  0  0  0  0  0
  -12.1787  -22.6725   15.4675 C   0  0  0  0  0  0  0  0  0  0  0  0
  -12.4286  -21.2090   15.0977 C   0  0  0  0  0  0  0  0  0  0  0  0
  -13.9203  -20.8976   15.2282 C   0  0  0  0  0  0  0  0  0  0  0  0
  1  2  1  0
  2  3  2  0
  2 10  1  0
  3  4  1  0
  3  7  1  0
  4  5  2  0
  5  6  1  0
  6  7  1  0
  6 22  1  0
  7  8  2  0
  8  9  1  0
  9 10  2  0
  9 11  1  0
 11 12  1  0
 12 13  2  0
 12 14  1  0
 14 15  2  0
 14 20  1  0
 15 16  1  0
 16 17  1  0
 16 18  2  0
 18 19  1  0
 18 21  1  0
 19 20  2  0
 22 23  1  0
 22 32  1  0
 23 24  1  0
 24 25  1  0
 24 31  1  0
 25 26  1  0
 26 27  1  0
 27 28  2  0
 27 29  1  0
 27 30  1  0
 30 31  1  0
 31 32  1  0
 32 33  1  0
 33 34  1  0
 34 35  2  0
 34 36  1  0
 36 37  1  0
 37 38  1  0
M  END
>  <Gold.Gold.Protein.RotatedWaterAtoms>  (646) 


>  <Gold.Id.Protein>  (646) 


>  <Gold.PLP.Chemscore.CHOScore>  (646) 
0.0000

>  <Gold.PLP.Chemscore.Hbond>  (646) 
2.0000

>  <Gold.PLP.Chemscore.Internal.Correction>  (646) 
0.5640

>  <Gold.PLP.Chemscore.Metal>  (646) 
0.0000

>  <Gold.PLP.Fitness>  (646) 
64.7063

>  <Gold.PLP.PLP>  (646) 
-61.2343

>  <Gold.PLP.ligand.clash>  (646) 
0.0000

>  <Gold.PLP.ligand.torsion>  (646) 
1.5460

>  <Gold.PLP.part.buried>  (646) 
-10.7250

>  <Gold.PLP.part.hbond>  (646) 
-3.0000

>  <Gold.PLP.part.metal>  (646) 
0.0000

>  <Gold.PLP.part.nonpolar>  (646) 
-47.6460

>  <Gold.PLP.part.repulsive>  (646) 
0.0763

>  <Gold.Protein.RotatedAtoms>  (646) 


>  <Gold.Protein.RotatedTorsions>  (646) 


>  <Gold.Protein.RotatedWaterAtoms>  (646) 


>  <Gold.Version>  (646) 
5.3.0

>  <PLP.Chemscore.CHOScore>  (646) 


>  <PLP.Chemscore.Hbond>  (646) 


>  <PLP.Chemscore.Internal.Correction>  (646) 


>  <PLP.Chemscore.Metal>  (646) 


>  <PLP.Fitness>  (646) 


>  <PLP.PLP>  (646) 


>  <PLP.ligand.clash>  (646) 


>  <PLP.ligand.torsion>  (646) 


>  <PLP.part.buried>  (646) 


>  <PLP.part.hbond>  (646) 


>  <PLP.part.metal>  (646) 


>  <PLP.part.nonpolar>  (646) 


>  <PLP.part.repulsive>  (646) 


>  <Version>  (646) 


$$$$
3646|Compound_2217|Compounds_3D_F|sdf|656|dock1|1
     RDKit          3D

 21 22  0  0  0  0  0  0  0  0999 V2000
   -9.8520  -17.3920   11.4119 N   0  0  0  0  0  0  0  0  0  0  0  0
   -9.6433  -16.2885   12.1574 C   0  0  0  0  0  0  0  0  0  0  0  0
  -10.5572  -15.8049   12.7957 O   0  0  0  0  0  0  0  0  0  0  0  0
   -8.3043  -15.6684   12.1981 C   0  0  0  0  0  0  0  0  0  0  0  0
   -7.1462  -16.2993   12.2005 N   0  0  0  0  0  0  0  0  0  0  0  0
   -6.1817  -15.4513   12.2402 N   0  0  0  0  0  0  0  0  0  0  0  0
   -6.6688  -14.1920   12.2676 C   0  0  0  0  0  0  0  0  0  0  0  0
   -8.0181  -14.2824   12.2357 C   0  0  0  0  0  0  0  0  0  0  0  0
   -5.8580  -12.9219   12.3177 C   0  0  0  0  0  0  0  0  0  0  0  0
   -4.7594  -15.8009   12.2559 C   0  0  0  0  0  0  0  0  0  0  0  0
   -4.6087  -17.3126   12.4381 C   0  0  0  0  0  0  0  0  0  0  0  0
  -11.1095  -17.9714   11.3694 C   0  0  0  0  0  0  0  0  0  0  0  0
  -11.5818  -18.6862   10.3828 N   0  0  0  0  0  0  0  0  0  0  0  0
  -12.8449  -19.0815   10.7055 C   0  0  0  0  0  0  0  0  0  0  0  0
  -13.1233  -18.5736   11.9370 C   0  0  0  0  0  0  0  0  0  0  0  0
  -12.0361  -17.8919   12.3382 O   0  0  0  0  0  0  0  0  0  0  0  0
  -13.7418  -19.9044    9.8762 C   0  0  0  0  0  0  0  0  0  0  0  0
  -14.9228  -19.9822   10.1521 O   0  0  0  0  0  0  0  0  0  0  0  0
  -13.2529  -20.5702    8.8117 O   0  0  0  0  0  0  0  0  0  0  0  0
  -14.2187  -21.1749    7.9117 C   0  0  0  0  0  0  0  0  0  0  0  0
  -14.9403  -22.3168    8.6293 C   0  0  0  0  0  0  0  0  0  0  0  0
  1  2  1  0
  1 12  1  0
  2  3  2  0
  2  4  1  0
  4  5  2  0
  4  8  1  0
  5  6  1  0
  6  7  1  0
  6 10  1  0
  7  8  2  0
  7  9  1  0
 10 11  1  0
 12 13  2  0
 12 16  1  0
 13 14  1  0
 14 15  2  0
 14 17  1  0
 15 16  1  0
 17 18  2  0
 17 19  1  0
 19 20  1  0
 20 21  1  0
M  END
>  <Gold.Gold.Protein.RotatedWaterAtoms>  (647) 


>  <Gold.Id.Protein>  (647) 


>  <Gold.PLP.Chemscore.CHOScore>  (647) 
0.9450

>  <Gold.PLP.Chemscore.Hbond>  (647) 
2.6097

>  <Gold.PLP.Chemscore.Internal.Correction>  (647) 
0.1032

>  <Gold.PLP.Chemscore.Metal>  (647) 
0.0000

>  <Gold.PLP.Fitness>  (647) 
56.6886

>  <Gold.PLP.PLP>  (647) 
-47.8785

>  <Gold.PLP.ligand.clash>  (647) 
0.0000

>  <Gold.PLP.ligand.torsion>  (647) 
0.9785

>  <Gold.PLP.part.buried>  (647) 
-3.9759

>  <Gold.PLP.part.hbond>  (647) 
-4.6131

>  <Gold.PLP.part.metal>  (647) 
0.0000

>  <Gold.PLP.part.nonpolar>  (647) 
-41.5179

>  <Gold.PLP.part.repulsive>  (647) 
1.7580

>  <Gold.Protein.RotatedAtoms>  (647) 


>  <Gold.Protein.RotatedTorsions>  (647) 


>  <Gold.Protein.RotatedWaterAtoms>  (647) 


>  <Gold.Version>  (647) 
5.3.0

>  <PLP.Chemscore.CHOScore>  (647) 


>  <PLP.Chemscore.Hbond>  (647) 


>  <PLP.Chemscore.Internal.Correction>  (647) 


>  <PLP.Chemscore.Metal>  (647) 


>  <PLP.Fitness>  (647) 


>  <PLP.PLP>  (647) 


>  <PLP.ligand.clash>  (647) 


>  <PLP.ligand.torsion>  (647) 


>  <PLP.part.buried>  (647) 


>  <PLP.part.hbond>  (647) 


>  <PLP.part.metal>  (647) 


>  <PLP.part.nonpolar>  (647) 


>  <PLP.part.repulsive>  (647) 


>  <Version>  (647) 


$$$$
3647|Compound_2217|Compounds_3D_F|sdf|656|dock2|1
     RDKit          3D

 21 22  0  0  0  0  0  0  0  0999 V2000
   -9.8789  -17.4936   11.4338 N   0  0  0  0  0  0  0  0  0  0  0  0
   -9.6862  -16.3767   12.1635 C   0  0  0  0  0  0  0  0  0  0  0  0
  -10.6047  -15.9028   12.8025 O   0  0  0  0  0  0  0  0  0  0  0  0
   -8.3593  -15.7302   12.1859 C   0  0  0  0  0  0  0  0  0  0  0  0
   -7.1894  -16.3384   12.2059 N   0  0  0  0  0  0  0  0  0  0  0  0
   -6.2413  -15.4714   12.2210 N   0  0  0  0  0  0  0  0  0  0  0  0
   -6.7524  -14.2213   12.2123 C   0  0  0  0  0  0  0  0  0  0  0  0
   -8.0998  -14.3384   12.1835 C   0  0  0  0  0  0  0  0  0  0  0  0
   -5.9661  -12.9351   12.2257 C   0  0  0  0  0  0  0  0  0  0  0  0
   -4.8126  -15.7930   12.2462 C   0  0  0  0  0  0  0  0  0  0  0  0
   -4.6319  -17.2868   12.5239 C   0  0  0  0  0  0  0  0  0  0  0  0
  -11.1250  -18.0979   11.4084 C   0  0  0  0  0  0  0  0  0  0  0  0
  -11.6522  -18.7050   10.3785 N   0  0  0  0  0  0  0  0  0  0  0  0
  -12.8817  -19.1693   10.7371 C   0  0  0  0  0  0  0  0  0  0  0  0
  -13.0820  -18.8166   12.0361 C   0  0  0  0  0  0  0  0  0  0  0  0
  -11.9822  -18.1574   12.4405 O   0  0  0  0  0  0  0  0  0  0  0  0
  -13.8193  -19.9137    9.8789 C   0  0  0  0  0  0  0  0  0  0  0  0
  -14.9790  -20.0454   10.2178 O   0  0  0  0  0  0  0  0  0  0  0  0
  -13.3912  -20.4479    8.7184 O   0  0  0  0  0  0  0  0  0  0  0  0
  -14.3892  -21.0859    7.8784 C   0  0  0  0  0  0  0  0  0  0  0  0
  -14.9556  -22.3106    8.5988 C   0  0  0  0  0  0  0  0  0  0  0  0
  1  2  1  0
  1 12  1  0
  2  3  2  0
  2  4  1  0
  4  5  2  0
  4  8  1  0
  5  6  1  0
  6  7  1  0
  6 10  1  0
  7  8  2  0
  7  9  1  0
 10 11  1  0
 12 13  2  0
 12 16  1  0
 13 14  1  0
 14 15  2  0
 14 17  1  0
 15 16  1  0
 17 18  2  0
 17 19  1  0
 19 20  1  0
 20 21  1  0
M  END
>  <Gold.Gold.Protein.RotatedWaterAtoms>  (648) 


>  <Gold.Id.Protein>  (648) 


>  <Gold.PLP.Chemscore.CHOScore>  (648) 
1.0000

>  <Gold.PLP.Chemscore.Hbond>  (648) 
2.6983

>  <Gold.PLP.Chemscore.Internal.Correction>  (648) 
0.0477

>  <Gold.PLP.Chemscore.Metal>  (648) 
0.0000

>  <Gold.PLP.Fitness>  (648) 
56.5199

>  <Gold.PLP.PLP>  (648) 
-47.4970

>  <Gold.PLP.ligand.clash>  (648) 
0.0000

>  <Gold.PLP.ligand.torsion>  (648) 
1.0599

>  <Gold.PLP.part.buried>  (648) 
-4.2224

>  <Gold.PLP.part.hbond>  (648) 
-3.9399

>  <Gold.PLP.part.metal>  (648) 
0.0000

>  <Gold.PLP.part.nonpolar>  (648) 
-41.4250

>  <Gold.PLP.part.repulsive>  (648) 
1.5692

>  <Gold.Protein.RotatedAtoms>  (648) 


>  <Gold.Protein.RotatedTorsions>  (648) 


>  <Gold.Protein.RotatedWaterAtoms>  (648) 


>  <Gold.Version>  (648) 
5.3.0

>  <PLP.Chemscore.CHOScore>  (648) 


>  <PLP.Chemscore.Hbond>  (648) 


>  <PLP.Chemscore.Internal.Correction>  (648) 


>  <PLP.Chemscore.Metal>  (648) 


>  <PLP.Fitness>  (648) 


>  <PLP.PLP>  (648) 


>  <PLP.ligand.clash>  (648) 


>  <PLP.ligand.torsion>  (648) 


>  <PLP.part.buried>  (648) 


>  <PLP.part.hbond>  (648) 


>  <PLP.part.metal>  (648) 


>  <PLP.part.nonpolar>  (648) 


>  <PLP.part.repulsive>  (648) 


>  <Version>  (648) 


$$$$
3648|Compound_2217|Compounds_3D_F|sdf|656|dock3|1
     RDKit          3D

 21 22  0  0  0  0  0  0  0  0999 V2000
   -9.8267  -17.6227   11.4903 N   0  0  0  0  0  0  0  0  0  0  0  0
   -9.5716  -16.4782   12.1553 C   0  0  0  0  0  0  0  0  0  0  0  0
  -10.4724  -15.8913   12.7216 O   0  0  0  0  0  0  0  0  0  0  0  0
   -8.1981  -15.9388   12.1952 C   0  0  0  0  0  0  0  0  0  0  0  0
   -7.8552  -14.6680   12.2765 N   0  0  0  0  0  0  0  0  0  0  0  0
   -6.5753  -14.5561   12.2900 N   0  0  0  0  0  0  0  0  0  0  0  0
   -5.9998  -15.7756   12.2155 C   0  0  0  0  0  0  0  0  0  0  0  0
   -6.9972  -16.6878   12.1598 C   0  0  0  0  0  0  0  0  0  0  0  0
   -4.5204  -16.0655   12.2034 C   0  0  0  0  0  0  0  0  0  0  0  0
   -5.8463  -13.2884   12.3720 C   0  0  0  0  0  0  0  0  0  0  0  0
   -6.8343  -12.1251   12.2632 C   0  0  0  0  0  0  0  0  0  0  0  0
  -11.1162  -18.1267   11.4483 C   0  0  0  0  0  0  0  0  0  0  0  0
  -11.7681  -18.4517   10.3636 N   0  0  0  0  0  0  0  0  0  0  0  0
  -13.0004  -18.9072   10.7237 C   0  0  0  0  0  0  0  0  0  0  0  0
  -13.0717  -18.8448   12.0813 C   0  0  0  0  0  0  0  0  0  0  0  0
  -11.8942  -18.3637   12.5170 O   0  0  0  0  0  0  0  0  0  0  0  0
  -14.0582  -19.3788    9.8137 C   0  0  0  0  0  0  0  0  0  0  0  0
  -14.4289  -18.6735    8.8960 O   0  0  0  0  0  0  0  0  0  0  0  0
  -14.6143  -20.5921    9.9985 O   0  0  0  0  0  0  0  0  0  0  0  0
  -15.0997  -21.2820    8.8165 C   0  0  0  0  0  0  0  0  0  0  0  0
  -13.9872  -21.3444    7.7687 C   0  0  0  0  0  0  0  0  0  0  0  0
  1  2  1  0
  1 12  1  0
  2  3  2  0
  2  4  1  0
  4  5  2  0
  4  8  1  0
  5  6  1  0
  6  7  1  0
  6 10  1  0
  7  8  2  0
  7  9  1  0
 10 11  1  0
 12 13  2  0
 12 16  1  0
 13 14  1  0
 14 15  2  0
 14 17  1  0
 15 16  1  0
 17 18  2  0
 17 19  1  0
 19 20  1  0
 20 21  1  0
M  END
>  <Gold.Gold.Protein.RotatedWaterAtoms>  (649) 


>  <Gold.Id.Protein>  (649) 


>  <Gold.PLP.Chemscore.CHOScore>  (649) 
1.0000

>  <Gold.PLP.Chemscore.Hbond>  (649) 
2.3962

>  <Gold.PLP.Chemscore.Internal.Correction>  (649) 
0.0477

>  <Gold.PLP.Chemscore.Metal>  (649) 
0.0000

>  <Gold.PLP.Fitness>  (649) 
54.0986

>  <Gold.PLP.PLP>  (649) 
-48.4200

>  <Gold.PLP.ligand.clash>  (649) 
0.0000

>  <Gold.PLP.ligand.torsion>  (649) 
2.2789

>  <Gold.PLP.part.buried>  (649) 
-2.5318

>  <Gold.PLP.part.hbond>  (649) 
-4.3236

>  <Gold.PLP.part.metal>  (649) 
0.0000

>  <Gold.PLP.part.nonpolar>  (649) 
-43.3812

>  <Gold.PLP.part.repulsive>  (649) 
1.5513

>  <Gold.Protein.RotatedAtoms>  (649) 


>  <Gold.Protein.RotatedTorsions>  (649) 


>  <Gold.Protein.RotatedWaterAtoms>  (649) 


>  <Gold.Version>  (649) 
5.3.0

>  <PLP.Chemscore.CHOScore>  (649) 


>  <PLP.Chemscore.Hbond>  (649) 


>  <PLP.Chemscore.Internal.Correction>  (649) 


>  <PLP.Chemscore.Metal>  (649) 


>  <PLP.Fitness>  (649) 


>  <PLP.PLP>  (649) 


>  <PLP.ligand.clash>  (649) 


>  <PLP.ligand.torsion>  (649) 


>  <PLP.part.buried>  (649) 


>  <PLP.part.hbond>  (649) 


>  <PLP.part.metal>  (649) 


>  <PLP.part.nonpolar>  (649) 


>  <PLP.part.repulsive>  (649) 


>  <Version>  (649) 


$$$$
3649|Compound_2217|Compounds_3D_F|sdf|656|dock4|1
     RDKit          3D

 21 22  0  0  0  0  0  0  0  0999 V2000
   -9.9078  -17.5185   11.5079 N   0  0  0  0  0  0  0  0  0  0  0  0
   -9.6822  -16.3696   12.1759 C   0  0  0  0  0  0  0  0  0  0  0  0
  -10.5926  -15.8201   12.7639 O   0  0  0  0  0  0  0  0  0  0  0  0
   -8.3290  -15.7799   12.1928 C   0  0  0  0  0  0  0  0  0  0  0  0
   -7.1857  -16.4371   12.1982 N   0  0  0  0  0  0  0  0  0  0  0  0
   -6.2017  -15.6110   12.2127 N   0  0  0  0  0  0  0  0  0  0  0  0
   -6.6596  -14.3405   12.2187 C   0  0  0  0  0  0  0  0  0  0  0  0
   -8.0109  -14.4003   12.2000 C   0  0  0  0  0  0  0  0  0  0  0  0
   -5.8195  -13.0887   12.2364 C   0  0  0  0  0  0  0  0  0  0  0  0
   -4.7878  -15.9929   12.2235 C   0  0  0  0  0  0  0  0  0  0  0  0
   -4.6726  -17.5186   12.2314 C   0  0  0  0  0  0  0  0  0  0  0  0
  -11.1785  -18.0697   11.4876 C   0  0  0  0  0  0  0  0  0  0  0  0
  -11.7086  -18.7154   10.4829 N   0  0  0  0  0  0  0  0  0  0  0  0
  -12.9650  -19.1043   10.8377 C   0  0  0  0  0  0  0  0  0  0  0  0
  -13.1787  -18.6650   12.1079 C   0  0  0  0  0  0  0  0  0  0  0  0
  -12.0604  -18.0297   12.4995 O   0  0  0  0  0  0  0  0  0  0  0  0
  -13.9149  -19.8590   10.0025 C   0  0  0  0  0  0  0  0  0  0  0  0
  -15.0645  -20.0034   10.3693 O   0  0  0  0  0  0  0  0  0  0  0  0
  -13.5093  -20.3885    8.8318 O   0  0  0  0  0  0  0  0  0  0  0  0
  -14.4867  -21.1575    8.0821 C   0  0  0  0  0  0  0  0  0  0  0  0
  -13.7946  -22.3420    7.4057 C   0  0  0  0  0  0  0  0  0  0  0  0
  1  2  1  0
  1 12  1  0
  2  3  2  0
  2  4  1  0
  4  5  2  0
  4  8  1  0
  5  6  1  0
  6  7  1  0
  6 10  1  0
  7  8  2  0
  7  9  1  0
 10 11  1  0
 12 13  2  0
 12 16  1  0
 13 14  1  0
 14 15  2  0
 14 17  1  0
 15 16  1  0
 17 18  2  0
 17 19  1  0
 19 20  1  0
 20 21  1  0
M  END
>  <Gold.Gold.Protein.RotatedWaterAtoms>  (650) 


>  <Gold.Id.Protein>  (650) 


>  <Gold.PLP.Chemscore.CHOScore>  (650) 
1.0000

>  <Gold.PLP.Chemscore.Hbond>  (650) 
2.5213

>  <Gold.PLP.Chemscore.Internal.Correction>  (650) 
0.0477

>  <Gold.PLP.Chemscore.Metal>  (650) 
0.0000

>  <Gold.PLP.Fitness>  (650) 
56.5901

>  <Gold.PLP.PLP>  (650) 
-48.0156

>  <Gold.PLP.ligand.clash>  (650) 
0.0000

>  <Gold.PLP.ligand.torsion>  (650) 
1.0185

>  <Gold.PLP.part.buried>  (650) 
-4.7067

>  <Gold.PLP.part.hbond>  (650) 
-3.7196

>  <Gold.PLP.part.metal>  (650) 
0.0000

>  <Gold.PLP.part.nonpolar>  (650) 
-40.9248

>  <Gold.PLP.part.repulsive>  (650) 
1.5137

>  <Gold.Protein.RotatedAtoms>  (650) 


>  <Gold.Protein.RotatedTorsions>  (650) 


>  <Gold.Protein.RotatedWaterAtoms>  (650) 


>  <Gold.Version>  (650) 
5.3.0

>  <PLP.Chemscore.CHOScore>  (650) 


>  <PLP.Chemscore.Hbond>  (650) 


>  <PLP.Chemscore.Internal.Correction>  (650) 


>  <PLP.Chemscore.Metal>  (650) 


>  <PLP.Fitness>  (650) 


>  <PLP.PLP>  (650) 


>  <PLP.ligand.clash>  (650) 


>  <PLP.ligand.torsion>  (650) 


>  <PLP.part.buried>  (650) 


>  <PLP.part.hbond>  (650) 


>  <PLP.part.metal>  (650) 


>  <PLP.part.nonpolar>  (650) 


>  <PLP.part.repulsive>  (650) 


>  <Version>  (650) 


$$$$
3650|Compound_2218|Compounds_3D_F|sdf|657|dock1|1
     RDKit          3D

 28 30  0  0  0  0  0  0  0  0999 V2000
   -9.2211  -21.2728    8.8557 O   0  0  0  0  0  0  0  0  0  0  0  0
   -9.7973  -20.1452    9.3312 C   0  0  0  0  0  0  0  0  0  0  0  0
  -11.1960  -19.9395    9.2135 C   0  0  0  0  0  0  0  0  0  0  0  0
  -11.9929  -20.8370    8.6375 N   0  0  0  0  0  0  0  0  0  0  0  0
  -13.2833  -20.6004    8.5529 C   0  0  0  0  0  0  0  0  0  0  0  0
  -13.8247  -19.4193    9.0598 C   0  0  0  0  0  0  0  0  0  0  0  0
  -13.0559  -18.5187    9.6331 N   0  0  0  0  0  0  0  0  0  0  0  0
  -11.7424  -18.7384    9.7305 C   0  0  0  0  0  0  0  0  0  0  0  0
  -10.9199  -17.8523   10.3057 N   0  0  0  0  0  0  0  0  0  0  0  0
   -9.6263  -18.0954   10.3879 C   0  0  0  0  0  0  0  0  0  0  0  0
   -9.0719  -19.2108    9.9207 N   0  0  0  0  0  0  0  0  0  0  0  0
   -8.8099  -17.1507   10.9910 N   0  0  0  0  0  0  0  0  0  0  0  0
   -8.8361  -15.8701   10.5714 C   0  0  0  0  0  0  0  0  0  0  0  0
   -9.5767  -15.5437    9.6635 O   0  0  0  0  0  0  0  0  0  0  0  0
   -7.9661  -14.8644   11.2132 C   0  0  0  0  0  0  0  0  0  0  0  0
   -8.1721  -13.5635   11.2575 N   0  0  0  0  0  0  0  0  0  0  0  0
   -7.2159  -12.9879   11.8940 N   0  0  0  0  0  0  0  0  0  0  0  0
   -6.3142  -13.9028   12.3102 C   0  0  0  0  0  0  0  0  0  0  0  0
   -6.7562  -15.1156   11.9025 C   0  0  0  0  0  0  0  0  0  0  0  0
   -5.0540  -13.6252   13.0888 C   0  0  0  0  0  0  0  0  0  0  0  0
   -7.1189  -11.5461   12.1345 C   0  0  0  0  0  0  0  0  0  0  0  0
   -8.2039  -10.8205   11.3356 C   0  0  0  0  0  0  0  0  0  0  0  0
  -14.1859  -21.6159    7.9006 C   0  0  0  0  0  0  0  0  0  0  0  0
  -15.5181  -21.1037    7.8463 O   0  0  0  0  0  0  0  0  0  0  0  0
  -14.1696  -22.9110    8.7139 C   0  0  0  0  0  0  0  0  0  0  0  0
  -12.8201  -23.3487    8.8860 O   0  0  0  0  0  0  0  0  0  0  0  0
  -14.9646  -23.9883    7.9746 C   0  0  0  0  0  0  0  0  0  0  0  0
  -16.2938  -23.5210    7.7353 O   0  0  0  0  0  0  0  0  0  0  0  0
  1  2  1  0
  2  3  2  0
  2 11  1  0
  3  4  1  0
  3  8  1  0
  4  5  2  0
  5  6  1  0
  5 23  1  0
  6  7  2  0
  7  8  1  0
  8  9  2  0
  9 10  1  0
 10 11  2  0
 10 12  1  0
 12 13  1  0
 13 14  2  0
 13 15  1  0
 15 16  2  0
 15 19  1  0
 16 17  1  0
 17 18  1  0
 17 21  1  0
 18 19  2  0
 18 20  1  0
 21 22  1  0
 23 24  1  0
 23 25  1  0
 25 26  1  0
 25 27  1  0
 27 28  1  0
M  END
>  <Gold.Gold.Protein.RotatedWaterAtoms>  (651) 


>  <Gold.Id.Protein>  (651) 


>  <Gold.PLP.Chemscore.CHOScore>  (651) 
0.0000

>  <Gold.PLP.Chemscore.Hbond>  (651) 
2.9600

>  <Gold.PLP.Chemscore.Internal.Correction>  (651) 
0.7863

>  <Gold.PLP.Chemscore.Metal>  (651) 
0.0000

>  <Gold.PLP.Fitness>  (651) 
60.4905

>  <Gold.PLP.PLP>  (651) 
-55.1244

>  <Gold.PLP.ligand.clash>  (651) 
2.5457

>  <Gold.PLP.ligand.torsion>  (651) 
0.8772

>  <Gold.PLP.part.buried>  (651) 
-4.7670

>  <Gold.PLP.part.hbond>  (651) 
-4.8394

>  <Gold.PLP.part.metal>  (651) 
0.0000

>  <Gold.PLP.part.nonpolar>  (651) 
-47.1292

>  <Gold.PLP.part.repulsive>  (651) 
1.5477

>  <Gold.Protein.RotatedAtoms>  (651) 


>  <Gold.Protein.RotatedTorsions>  (651) 


>  <Gold.Protein.RotatedWaterAtoms>  (651) 


>  <Gold.Version>  (651) 
5.3.0

>  <PLP.Chemscore.CHOScore>  (651) 


>  <PLP.Chemscore.Hbond>  (651) 


>  <PLP.Chemscore.Internal.Correction>  (651) 


>  <PLP.Chemscore.Metal>  (651) 


>  <PLP.Fitness>  (651) 


>  <PLP.PLP>  (651) 


>  <PLP.ligand.clash>  (651) 


>  <PLP.ligand.torsion>  (651) 


>  <PLP.part.buried>  (651) 


>  <PLP.part.hbond>  (651) 


>  <PLP.part.metal>  (651) 


>  <PLP.part.nonpolar>  (651) 


>  <PLP.part.repulsive>  (651) 


>  <Version>  (651) 


$$$$
3651|Compound_2218|Compounds_3D_F|sdf|657|dock2|1
     RDKit          3D

 28 30  0  0  0  0  0  0  0  0999 V2000
   -9.1608  -21.1357    9.4697 O   0  0  0  0  0  0  0  0  0  0  0  0
   -9.8109  -19.9843    9.7545 C   0  0  0  0  0  0  0  0  0  0  0  0
  -11.1886  -19.8345    9.4512 C   0  0  0  0  0  0  0  0  0  0  0  0
  -11.8932  -20.8093    8.8806 N   0  0  0  0  0  0  0  0  0  0  0  0
  -13.1681  -20.6221    8.6196 C   0  0  0  0  0  0  0  0  0  0  0  0
  -13.7885  -19.4132    8.9340 C   0  0  0  0  0  0  0  0  0  0  0  0
  -13.1114  -18.4365    9.4983 N   0  0  0  0  0  0  0  0  0  0  0  0
  -11.8156  -18.6049    9.7729 C   0  0  0  0  0  0  0  0  0  0  0  0
  -11.0853  -17.6408   10.3470 N   0  0  0  0  0  0  0  0  0  0  0  0
   -9.8069  -17.8346   10.6066 C   0  0  0  0  0  0  0  0  0  0  0  0
   -9.1795  -18.9738   10.3262 N   0  0  0  0  0  0  0  0  0  0  0  0
   -9.0869  -16.8096   11.2015 N   0  0  0  0  0  0  0  0  0  0  0  0
   -9.0389  -15.5940   10.6211 C   0  0  0  0  0  0  0  0  0  0  0  0
   -9.6277  -15.3968    9.5753 O   0  0  0  0  0  0  0  0  0  0  0  0
   -8.2716  -14.5029   11.2543 C   0  0  0  0  0  0  0  0  0  0  0  0
   -8.6968  -13.2770   11.4849 N   0  0  0  0  0  0  0  0  0  0  0  0
   -7.7700  -12.5885   12.0484 N   0  0  0  0  0  0  0  0  0  0  0  0
   -6.6650  -13.3451   12.2214 C   0  0  0  0  0  0  0  0  0  0  0  0
   -6.9426  -14.5771   11.7339 C   0  0  0  0  0  0  0  0  0  0  0  0
   -5.3672  -12.9017   12.8463 C   0  0  0  0  0  0  0  0  0  0  0  0
   -7.8949  -11.1843   12.4472 C   0  0  0  0  0  0  0  0  0  0  0  0
   -6.7104  -10.3887   11.8942 C   0  0  0  0  0  0  0  0  0  0  0  0
  -13.9662  -21.7250    7.9733 C   0  0  0  0  0  0  0  0  0  0  0  0
  -14.4649  -21.2761    6.7123 O   0  0  0  0  0  0  0  0  0  0  0  0
  -15.1381  -22.1060    8.8792 C   0  0  0  0  0  0  0  0  0  0  0  0
  -14.6373  -22.6369   10.1080 O   0  0  0  0  0  0  0  0  0  0  0  0
  -16.0006  -23.1595    8.1826 C   0  0  0  0  0  0  0  0  0  0  0  0
  -16.7139  -22.5542    7.1022 O   0  0  0  0  0  0  0  0  0  0  0  0
  1  2  1  0
  2  3  2  0
  2 11  1  0
  3  4  1  0
  3  8  1  0
  4  5  2  0
  5  6  1  0
  5 23  1  0
  6  7  2  0
  7  8  1  0
  8  9  2  0
  9 10  1  0
 10 11  2  0
 10 12  1  0
 12 13  1  0
 13 14  2  0
 13 15  1  0
 15 16  2  0
 15 19  1  0
 16 17  1  0
 17 18  1  0
 17 21  1  0
 18 19  2  0
 18 20  1  0
 21 22  1  0
 23 24  1  0
 23 25  1  0
 25 26  1  0
 25 27  1  0
 27 28  1  0
M  END
>  <Gold.Gold.Protein.RotatedWaterAtoms>  (652) 


>  <Gold.Id.Protein>  (652) 


>  <Gold.PLP.Chemscore.CHOScore>  (652) 
0.0416

>  <Gold.PLP.Chemscore.Hbond>  (652) 
3.1840

>  <Gold.PLP.Chemscore.Internal.Correction>  (652) 
0.6603

>  <Gold.PLP.Chemscore.Metal>  (652) 
0.0000

>  <Gold.PLP.Fitness>  (652) 
61.9083

>  <Gold.PLP.PLP>  (652) 
-54.6400

>  <Gold.PLP.ligand.clash>  (652) 
0.0000

>  <Gold.PLP.ligand.torsion>  (652) 
1.5343

>  <Gold.PLP.part.buried>  (652) 
-5.3898

>  <Gold.PLP.part.hbond>  (652) 
-7.2471

>  <Gold.PLP.part.metal>  (652) 
0.0000

>  <Gold.PLP.part.nonpolar>  (652) 
-45.6655

>  <Gold.PLP.part.repulsive>  (652) 
2.6661

>  <Gold.Protein.RotatedAtoms>  (652) 


>  <Gold.Protein.RotatedTorsions>  (652) 


>  <Gold.Protein.RotatedWaterAtoms>  (652) 


>  <Gold.Version>  (652) 
5.3.0

>  <PLP.Chemscore.CHOScore>  (652) 


>  <PLP.Chemscore.Hbond>  (652) 


>  <PLP.Chemscore.Internal.Correction>  (652) 


>  <PLP.Chemscore.Metal>  (652) 


>  <PLP.Fitness>  (652) 


>  <PLP.PLP>  (652) 


>  <PLP.ligand.clash>  (652) 


>  <PLP.ligand.torsion>  (652) 


>  <PLP.part.buried>  (652) 


>  <PLP.part.hbond>  (652) 


>  <PLP.part.metal>  (652) 


>  <PLP.part.nonpolar>  (652) 


>  <PLP.part.repulsive>  (652) 


>  <Version>  (652) 


$$$$
3652|Compound_2218|Compounds_3D_F|sdf|657|dock3|1
     RDKit          3D

 28 30  0  0  0  0  0  0  0  0999 V2000
  -10.6627  -15.7272   12.9774 O   0  0  0  0  0  0  0  0  0  0  0  0
  -10.1841  -16.6439   12.1055 C   0  0  0  0  0  0  0  0  0  0  0  0
   -8.9082  -16.4801   11.5075 C   0  0  0  0  0  0  0  0  0  0  0  0
   -8.1353  -15.4298   11.7759 N   0  0  0  0  0  0  0  0  0  0  0  0
   -6.9601  -15.3232   11.1963 C   0  0  0  0  0  0  0  0  0  0  0  0
   -6.5162  -16.2985   10.3036 C   0  0  0  0  0  0  0  0  0  0  0  0
   -7.2634  -17.3446   10.0240 N   0  0  0  0  0  0  0  0  0  0  0  0
   -8.4603  -17.4736   10.6016 C   0  0  0  0  0  0  0  0  0  0  0  0
   -9.2560  -18.5204   10.3492 N   0  0  0  0  0  0  0  0  0  0  0  0
  -10.4337  -18.6219   10.9339 C   0  0  0  0  0  0  0  0  0  0  0  0
  -10.8915  -17.7159   11.7939 N   0  0  0  0  0  0  0  0  0  0  0  0
  -11.2266  -19.7219   10.6441 N   0  0  0  0  0  0  0  0  0  0  0  0
  -12.1876  -19.6316    9.7033 C   0  0  0  0  0  0  0  0  0  0  0  0
  -12.3585  -18.5846    9.1086 O   0  0  0  0  0  0  0  0  0  0  0  0
  -13.0323  -20.8029    9.3954 C   0  0  0  0  0  0  0  0  0  0  0  0
  -12.9497  -21.9962    9.9486 N   0  0  0  0  0  0  0  0  0  0  0  0
  -13.8363  -22.7773    9.4444 N   0  0  0  0  0  0  0  0  0  0  0  0
  -14.5631  -22.1212    8.5146 C   0  0  0  0  0  0  0  0  0  0  0  0
  -14.0878  -20.8550    8.4546 C   0  0  0  0  0  0  0  0  0  0  0  0
  -15.6960  -22.6911    7.7003 C   0  0  0  0  0  0  0  0  0  0  0  0
  -14.0313  -24.1786    9.8249 C   0  0  0  0  0  0  0  0  0  0  0  0
  -12.8330  -25.0069    9.3561 C   0  0  0  0  0  0  0  0  0  0  0  0
   -6.0849  -14.1343   11.4993 C   0  0  0  0  0  0  0  0  0  0  0  0
   -4.8134  -14.5861   11.9678 O   0  0  0  0  0  0  0  0  0  0  0  0
   -6.7482  -13.2724   12.5746 C   0  0  0  0  0  0  0  0  0  0  0  0
   -8.0626  -12.9071   12.1486 O   0  0  0  0  0  0  0  0  0  0  0  0
   -5.9163  -12.0093   12.8015 C   0  0  0  0  0  0  0  0  0  0  0  0
   -4.6009  -12.3735   13.2250 O   0  0  0  0  0  0  0  0  0  0  0  0
  1  2  1  0
  2  3  2  0
  2 11  1  0
  3  4  1  0
  3  8  1  0
  4  5  2  0
  5  6  1  0
  5 23  1  0
  6  7  2  0
  7  8  1  0
  8  9  2  0
  9 10  1  0
 10 11  2  0
 10 12  1  0
 12 13  1  0
 13 14  2  0
 13 15  1  0
 15 16  2  0
 15 19  1  0
 16 17  1  0
 17 18  1  0
 17 21  1  0
 18 19  2  0
 18 20  1  0
 21 22  1  0
 23 24  1  0
 23 25  1  0
 25 26  1  0
 25 27  1  0
 27 28  1  0
M  END
>  <Gold.Gold.Protein.RotatedWaterAtoms>  (653) 


>  <Gold.Id.Protein>  (653) 


>  <Gold.PLP.Chemscore.CHOScore>  (653) 
0.0000

>  <Gold.PLP.Chemscore.Hbond>  (653) 
4.0560

>  <Gold.PLP.Chemscore.Internal.Correction>  (653) 
0.6603

>  <Gold.PLP.Chemscore.Metal>  (653) 
0.0000

>  <Gold.PLP.Fitness>  (653) 
62.3363

>  <Gold.PLP.PLP>  (653) 
-51.2434

>  <Gold.PLP.ligand.clash>  (653) 
0.0000

>  <Gold.PLP.ligand.torsion>  (653) 
0.8677

>  <Gold.PLP.part.buried>  (653) 
-4.3000

>  <Gold.PLP.part.hbond>  (653) 
-9.2154

>  <Gold.PLP.part.metal>  (653) 
0.0000

>  <Gold.PLP.part.nonpolar>  (653) 
-37.6184

>  <Gold.PLP.part.repulsive>  (653) 
0.1379

>  <Gold.Protein.RotatedAtoms>  (653) 


>  <Gold.Protein.RotatedTorsions>  (653) 


>  <Gold.Protein.RotatedWaterAtoms>  (653) 


>  <Gold.Version>  (653) 
5.3.0

>  <PLP.Chemscore.CHOScore>  (653) 


>  <PLP.Chemscore.Hbond>  (653) 


>  <PLP.Chemscore.Internal.Correction>  (653) 


>  <PLP.Chemscore.Metal>  (653) 


>  <PLP.Fitness>  (653) 


>  <PLP.PLP>  (653) 


>  <PLP.ligand.clash>  (653) 


>  <PLP.ligand.torsion>  (653) 


>  <PLP.part.buried>  (653) 


>  <PLP.part.hbond>  (653) 


>  <PLP.part.metal>  (653) 


>  <PLP.part.nonpolar>  (653) 


>  <PLP.part.repulsive>  (653) 


>  <Version>  (653) 


$$$$
3653|Compound_2218|Compounds_3D_F|sdf|657|dock4|1
     RDKit          3D

 28 30  0  0  0  0  0  0  0  0999 V2000
   -9.3296  -19.9781    9.1000 O   0  0  0  0  0  0  0  0  0  0  0  0
   -9.6391  -19.0730   10.0562 C   0  0  0  0  0  0  0  0  0  0  0  0
  -10.8677  -19.1529   10.7609 C   0  0  0  0  0  0  0  0  0  0  0  0
  -11.7585  -20.1113   10.5151 N   0  0  0  0  0  0  0  0  0  0  0  0
  -12.8829  -20.1430   11.1954 C   0  0  0  0  0  0  0  0  0  0  0  0
  -13.1515  -19.1829   12.1708 C   0  0  0  0  0  0  0  0  0  0  0  0
  -12.2855  -18.2271   12.4303 N   0  0  0  0  0  0  0  0  0  0  0  0
  -11.1366  -18.1760   11.7518 C   0  0  0  0  0  0  0  0  0  0  0  0
  -10.2243  -17.2232   11.9806 N   0  0  0  0  0  0  0  0  0  0  0  0
   -9.0980  -17.1967   11.2950 C   0  0  0  0  0  0  0  0  0  0  0  0
   -8.8026  -18.0959   10.3600 N   0  0  0  0  0  0  0  0  0  0  0  0
   -8.1805  -16.1923   11.5632 N   0  0  0  0  0  0  0  0  0  0  0  0
   -8.5810  -14.9059   11.6030 C   0  0  0  0  0  0  0  0  0  0  0  0
   -9.7478  -14.6269   11.4038 O   0  0  0  0  0  0  0  0  0  0  0  0
   -7.6036  -13.8364   11.8878 C   0  0  0  0  0  0  0  0  0  0  0  0
   -7.8285  -12.5384   11.8494 N   0  0  0  0  0  0  0  0  0  0  0  0
   -6.7570  -11.8970   12.1511 N   0  0  0  0  0  0  0  0  0  0  0  0
   -5.7521  -12.7610   12.4100 C   0  0  0  0  0  0  0  0  0  0  0  0
   -6.2497  -14.0110   12.2596 C   0  0  0  0  0  0  0  0  0  0  0  0
   -4.3417  -12.4003   12.7996 C   0  0  0  0  0  0  0  0  0  0  0  0
   -6.6426  -10.4375   12.2073 C   0  0  0  0  0  0  0  0  0  0  0  0
   -7.9006   -9.8028   11.6104 C   0  0  0  0  0  0  0  0  0  0  0  0
  -13.8919  -21.2274   10.9174 C   0  0  0  0  0  0  0  0  0  0  0  0
  -13.2630  -22.5045   11.0349 O   0  0  0  0  0  0  0  0  0  0  0  0
  -14.4455  -21.0594    9.5016 C   0  0  0  0  0  0  0  0  0  0  0  0
  -15.4135  -22.0788    9.2444 O   0  0  0  0  0  0  0  0  0  0  0  0
  -13.3040  -21.1734    8.4901 C   0  0  0  0  0  0  0  0  0  0  0  0
  -13.8245  -21.0407    7.1658 O   0  0  0  0  0  0  0  0  0  0  0  0
  1  2  1  0
  2  3  2  0
  2 11  1  0
  3  4  1  0
  3  8  1  0
  4  5  2  0
  5  6  1  0
  5 23  1  0
  6  7  2  0
  7  8  1  0
  8  9  2  0
  9 10  1  0
 10 11  2  0
 10 12  1  0
 12 13  1  0
 13 14  2  0
 13 15  1  0
 15 16  2  0
 15 19  1  0
 16 17  1  0
 17 18  1  0
 17 21  1  0
 18 19  2  0
 18 20  1  0
 21 22  1  0
 23 24  1  0
 23 25  1  0
 25 26  1  0
 25 27  1  0
 27 28  1  0
M  END
>  <Gold.Gold.Protein.RotatedWaterAtoms>  (654) 


>  <Gold.Id.Protein>  (654) 


>  <Gold.PLP.Chemscore.CHOScore>  (654) 
1.0000

>  <Gold.PLP.Chemscore.Hbond>  (654) 
2.4808

>  <Gold.PLP.Chemscore.Internal.Correction>  (654) 
0.6603

>  <Gold.PLP.Chemscore.Metal>  (654) 
0.0000

>  <Gold.PLP.Fitness>  (654) 
64.6099

>  <Gold.PLP.PLP>  (654) 
-54.7472

>  <Gold.PLP.ligand.clash>  (654) 
0.0000

>  <Gold.PLP.ligand.torsion>  (654) 
0.6200

>  <Gold.PLP.part.buried>  (654) 
-1.0701

>  <Gold.PLP.part.hbond>  (654) 
-3.5945

>  <Gold.PLP.part.metal>  (654) 
0.0000

>  <Gold.PLP.part.nonpolar>  (654) 
-51.1484

>  <Gold.PLP.part.repulsive>  (654) 
0.3950

>  <Gold.Protein.RotatedAtoms>  (654) 


>  <Gold.Protein.RotatedTorsions>  (654) 


>  <Gold.Protein.RotatedWaterAtoms>  (654) 


>  <Gold.Version>  (654) 
5.3.0

>  <PLP.Chemscore.CHOScore>  (654) 


>  <PLP.Chemscore.Hbond>  (654) 


>  <PLP.Chemscore.Internal.Correction>  (654) 


>  <PLP.Chemscore.Metal>  (654) 


>  <PLP.Fitness>  (654) 


>  <PLP.PLP>  (654) 


>  <PLP.ligand.clash>  (654) 


>  <PLP.ligand.torsion>  (654) 


>  <PLP.part.buried>  (654) 


>  <PLP.part.hbond>  (654) 


>  <PLP.part.metal>  (654) 


>  <PLP.part.nonpolar>  (654) 


>  <PLP.part.repulsive>  (654) 


>  <Version>  (654) 


$$$$
3654|Compound_2218|Compounds_3D_F|sdf|657|dock5|1
     RDKit          3D

 28 30  0  0  0  0  0  0  0  0999 V2000
  -10.5943  -16.0852   12.8067 O   0  0  0  0  0  0  0  0  0  0  0  0
  -10.0010  -17.1069   12.1482 C   0  0  0  0  0  0  0  0  0  0  0  0
   -8.6851  -16.9733   11.6355 C   0  0  0  0  0  0  0  0  0  0  0  0
   -7.9850  -15.8501   11.7791 N   0  0  0  0  0  0  0  0  0  0  0  0
   -6.7685  -15.7755   11.2862 C   0  0  0  0  0  0  0  0  0  0  0  0
   -6.2053  -16.8604   10.6146 C   0  0  0  0  0  0  0  0  0  0  0  0
   -6.8790  -17.9799   10.4613 N   0  0  0  0  0  0  0  0  0  0  0  0
   -8.1160  -18.0782   10.9544 C   0  0  0  0  0  0  0  0  0  0  0  0
   -8.8404  -19.1966   10.8240 N   0  0  0  0  0  0  0  0  0  0  0  0
  -10.0601  -19.2655   11.3209 C   0  0  0  0  0  0  0  0  0  0  0  0
  -10.6312  -18.2551   11.9712 N   0  0  0  0  0  0  0  0  0  0  0  0
  -10.7761  -20.4424   11.1632 N   0  0  0  0  0  0  0  0  0  0  0  0
  -11.8694  -20.4664   10.3752 C   0  0  0  0  0  0  0  0  0  0  0  0
  -12.2272  -19.4550    9.8024 O   0  0  0  0  0  0  0  0  0  0  0  0
  -12.6321  -21.7196   10.2080 C   0  0  0  0  0  0  0  0  0  0  0  0
  -13.8361  -21.8408    9.6859 N   0  0  0  0  0  0  0  0  0  0  0  0
  -14.1983  -23.0734    9.6964 N   0  0  0  0  0  0  0  0  0  0  0  0
  -13.2280  -23.8412   10.2371 C   0  0  0  0  0  0  0  0  0  0  0  0
  -12.2064  -23.0188   10.5726 C   0  0  0  0  0  0  0  0  0  0  0  0
  -13.2724  -25.3358   10.4258 C   0  0  0  0  0  0  0  0  0  0  0  0
  -15.4799  -23.5738    9.1929 C   0  0  0  0  0  0  0  0  0  0  0  0
  -15.3421  -23.9324    7.7117 C   0  0  0  0  0  0  0  0  0  0  0  0
   -5.9755  -14.5041   11.4480 C   0  0  0  0  0  0  0  0  0  0  0  0
   -4.6513  -14.8205   11.8798 O   0  0  0  0  0  0  0  0  0  0  0  0
   -6.6514  -13.6094   12.4881 C   0  0  0  0  0  0  0  0  0  0  0  0
   -8.0025  -13.3589   12.0952 O   0  0  0  0  0  0  0  0  0  0  0  0
   -5.8958  -12.2835   12.5894 C   0  0  0  0  0  0  0  0  0  0  0  0
   -4.7300  -12.4589   13.3973 O   0  0  0  0  0  0  0  0  0  0  0  0
  1  2  1  0
  2  3  2  0
  2 11  1  0
  3  4  1  0
  3  8  1  0
  4  5  2  0
  5  6  1  0
  5 23  1  0
  6  7  2  0
  7  8  1  0
  8  9  2  0
  9 10  1  0
 10 11  2  0
 10 12  1  0
 12 13  1  0
 13 14  2  0
 13 15  1  0
 15 16  2  0
 15 19  1  0
 16 17  1  0
 17 18  1  0
 17 21  1  0
 18 19  2  0
 18 20  1  0
 21 22  1  0
 23 24  1  0
 23 25  1  0
 25 26  1  0
 25 27  1  0
 27 28  1  0
M  END
>  <Gold.Gold.Protein.RotatedWaterAtoms>  (655) 


>  <Gold.Id.Protein>  (655) 


>  <Gold.PLP.Chemscore.CHOScore>  (655) 
0.0000

>  <Gold.PLP.Chemscore.Hbond>  (655) 
3.8978

>  <Gold.PLP.Chemscore.Internal.Correction>  (655) 
0.6603

>  <Gold.PLP.Chemscore.Metal>  (655) 
0.0000

>  <Gold.PLP.Fitness>  (655) 
54.3229

>  <Gold.PLP.PLP>  (655) 
-45.2035

>  <Gold.PLP.ligand.clash>  (655) 
0.0000

>  <Gold.PLP.ligand.torsion>  (655) 
1.6171

>  <Gold.PLP.part.buried>  (655) 
-9.1893

>  <Gold.PLP.part.hbond>  (655) 
-8.5417

>  <Gold.PLP.part.metal>  (655) 
0.0000

>  <Gold.PLP.part.nonpolar>  (655) 
-28.5600

>  <Gold.PLP.part.repulsive>  (655) 
0.0941

>  <Gold.Protein.RotatedAtoms>  (655) 


>  <Gold.Protein.RotatedTorsions>  (655) 


>  <Gold.Protein.RotatedWaterAtoms>  (655) 


>  <Gold.Version>  (655) 
5.3.0

>  <PLP.Chemscore.CHOScore>  (655) 


>  <PLP.Chemscore.Hbond>  (655) 


>  <PLP.Chemscore.Internal.Correction>  (655) 


>  <PLP.Chemscore.Metal>  (655) 


>  <PLP.Fitness>  (655) 


>  <PLP.PLP>  (655) 


>  <PLP.ligand.clash>  (655) 


>  <PLP.ligand.torsion>  (655) 


>  <PLP.part.buried>  (655) 


>  <PLP.part.hbond>  (655) 


>  <PLP.part.metal>  (655) 


>  <PLP.part.nonpolar>  (655) 


>  <PLP.part.repulsive>  (655) 


>  <Version>  (655) 


$$$$
3655|Compound_2218|Compounds_3D_F|sdf|657|dock6|1
     RDKit          3D

 28 30  0  0  0  0  0  0  0  0999 V2000
  -11.1598  -17.2999   12.2533 O   0  0  0  0  0  0  0  0  0  0  0  0
  -10.6312  -18.2446   11.4423 C   0  0  0  0  0  0  0  0  0  0  0  0
   -9.2502  -18.2328   11.1182 C   0  0  0  0  0  0  0  0  0  0  0  0
   -8.4242  -17.3030   11.5930 N   0  0  0  0  0  0  0  0  0  0  0  0
   -7.1518  -17.3351   11.2637 C   0  0  0  0  0  0  0  0  0  0  0  0
   -6.6598  -18.3326   10.4223 C   0  0  0  0  0  0  0  0  0  0  0  0
   -7.4580  -19.2614    9.9417 N   0  0  0  0  0  0  0  0  0  0  0  0
   -8.7539  -19.2485   10.2634 C   0  0  0  0  0  0  0  0  0  0  0  0
   -9.6048  -20.1724    9.8000 N   0  0  0  0  0  0  0  0  0  0  0  0
  -10.8800  -20.1351   10.1340 C   0  0  0  0  0  0  0  0  0  0  0  0
  -11.3874  -19.2034   10.9368 N   0  0  0  0  0  0  0  0  0  0  0  0
  -11.7273  -21.1109    9.6313 N   0  0  0  0  0  0  0  0  0  0  0  0
  -12.9921  -20.7950    9.2892 C   0  0  0  0  0  0  0  0  0  0  0  0
  -13.3897  -19.6532    9.4214 O   0  0  0  0  0  0  0  0  0  0  0  0
  -13.8944  -21.8344    8.7546 C   0  0  0  0  0  0  0  0  0  0  0  0
  -15.2109  -21.7861    8.7175 N   0  0  0  0  0  0  0  0  0  0  0  0
  -15.6758  -22.8603    8.1877 N   0  0  0  0  0  0  0  0  0  0  0  0
  -14.6652  -23.6861    7.8413 C   0  0  0  0  0  0  0  0  0  0  0  0
  -13.5091  -23.0685    8.1798 C   0  0  0  0  0  0  0  0  0  0  0  0
  -14.7998  -25.0400    7.1932 C   0  0  0  0  0  0  0  0  0  0  0  0
  -17.0984  -23.1471    7.9873 C   0  0  0  0  0  0  0  0  0  0  0  0
  -17.4389  -24.5034    8.6087 C   0  0  0  0  0  0  0  0  0  0  0  0
   -6.2163  -16.2825   11.8006 C   0  0  0  0  0  0  0  0  0  0  0  0
   -6.0941  -16.4311   13.2159 O   0  0  0  0  0  0  0  0  0  0  0  0
   -6.7711  -14.8939   11.4792 C   0  0  0  0  0  0  0  0  0  0  0  0
   -6.6067  -14.6262   10.0850 O   0  0  0  0  0  0  0  0  0  0  0  0
   -6.0164  -13.8416   12.2929 C   0  0  0  0  0  0  0  0  0  0  0  0
   -4.6125  -13.9756   12.0614 O   0  0  0  0  0  0  0  0  0  0  0  0
  1  2  1  0
  2  3  2  0
  2 11  1  0
  3  4  1  0
  3  8  1  0
  4  5  2  0
  5  6  1  0
  5 23  1  0
  6  7  2  0
  7  8  1  0
  8  9  2  0
  9 10  1  0
 10 11  2  0
 10 12  1  0
 12 13  1  0
 13 14  2  0
 13 15  1  0
 15 16  2  0
 15 19  1  0
 16 17  1  0
 17 18  1  0
 17 21  1  0
 18 19  2  0
 18 20  1  0
 21 22  1  0
 23 24  1  0
 23 25  1  0
 25 26  1  0
 25 27  1  0
 27 28  1  0
M  END
>  <Gold.Gold.Protein.RotatedWaterAtoms>  (656) 


>  <Gold.Id.Protein>  (656) 


>  <Gold.PLP.Chemscore.CHOScore>  (656) 
0.0000

>  <Gold.PLP.Chemscore.Hbond>  (656) 
3.0205

>  <Gold.PLP.Chemscore.Internal.Correction>  (656) 
0.6603

>  <Gold.PLP.Chemscore.Metal>  (656) 
0.0000

>  <Gold.PLP.Fitness>  (656) 
59.9279

>  <Gold.PLP.PLP>  (656) 
-51.7169

>  <Gold.PLP.ligand.clash>  (656) 
0.0000

>  <Gold.PLP.ligand.torsion>  (656) 
0.7555

>  <Gold.PLP.part.buried>  (656) 
-4.9839

>  <Gold.PLP.part.hbond>  (656) 
-6.0000

>  <Gold.PLP.part.metal>  (656) 
0.0000

>  <Gold.PLP.part.nonpolar>  (656) 
-41.0535

>  <Gold.PLP.part.repulsive>  (656) 
0.2863

>  <Gold.Protein.RotatedAtoms>  (656) 


>  <Gold.Protein.RotatedTorsions>  (656) 


>  <Gold.Protein.RotatedWaterAtoms>  (656) 


>  <Gold.Version>  (656) 
5.3.0

>  <PLP.Chemscore.CHOScore>  (656) 


>  <PLP.Chemscore.Hbond>  (656) 


>  <PLP.Chemscore.Internal.Correction>  (656) 


>  <PLP.Chemscore.Metal>  (656) 


>  <PLP.Fitness>  (656) 


>  <PLP.PLP>  (656) 


>  <PLP.ligand.clash>  (656) 


>  <PLP.ligand.torsion>  (656) 


>  <PLP.part.buried>  (656) 


>  <PLP.part.hbond>  (656) 


>  <PLP.part.metal>  (656) 


>  <PLP.part.nonpolar>  (656) 


>  <PLP.part.repulsive>  (656) 


>  <Version>  (656) 


$$$$
3656|Compound_2218|Compounds_3D_F|sdf|657|dock7|1
     RDKit          3D

 28 30  0  0  0  0  0  0  0  0999 V2000
  -10.9800  -17.2754   12.3015 O   0  0  0  0  0  0  0  0  0  0  0  0
  -10.4863  -18.2317   11.4822 C   0  0  0  0  0  0  0  0  0  0  0  0
   -9.1189  -18.2291   11.1047 C   0  0  0  0  0  0  0  0  0  0  0  0
   -8.2720  -17.2968   11.5359 N   0  0  0  0  0  0  0  0  0  0  0  0
   -7.0135  -17.3377   11.1579 C   0  0  0  0  0  0  0  0  0  0  0  0
   -6.5578  -18.3471   10.3102 C   0  0  0  0  0  0  0  0  0  0  0  0
   -7.3771  -19.2786    9.8723 N   0  0  0  0  0  0  0  0  0  0  0  0
   -8.6595  -19.2569   10.2438 C   0  0  0  0  0  0  0  0  0  0  0  0
   -9.5308  -20.1831    9.8249 N   0  0  0  0  0  0  0  0  0  0  0  0
  -10.7920  -20.1369   10.2077 C   0  0  0  0  0  0  0  0  0  0  0  0
  -11.2648  -19.1937   11.0181 N   0  0  0  0  0  0  0  0  0  0  0  0
  -11.6614  -21.1155    9.7501 N   0  0  0  0  0  0  0  0  0  0  0  0
  -12.8361  -20.7655    9.1895 C   0  0  0  0  0  0  0  0  0  0  0  0
  -13.1329  -19.5908    9.0850 O   0  0  0  0  0  0  0  0  0  0  0  0
  -13.7620  -21.8078    8.7030 C   0  0  0  0  0  0  0  0  0  0  0  0
  -13.4330  -23.0078    8.2686 N   0  0  0  0  0  0  0  0  0  0  0  0
  -14.4875  -23.6547    7.9221 N   0  0  0  0  0  0  0  0  0  0  0  0
  -15.5870  -22.8954    8.1171 C   0  0  0  0  0  0  0  0  0  0  0  0
  -15.1710  -21.7096    8.6204 C   0  0  0  0  0  0  0  0  0  0  0  0
  -17.0117  -23.2964    7.8329 C   0  0  0  0  0  0  0  0  0  0  0  0
  -14.4957  -25.0206    7.3925 C   0  0  0  0  0  0  0  0  0  0  0  0
  -15.5003  -25.8671    8.1773 C   0  0  0  0  0  0  0  0  0  0  0  0
   -6.0543  -16.2823   11.6453 C   0  0  0  0  0  0  0  0  0  0  0  0
   -5.2711  -16.8091   12.7174 O   0  0  0  0  0  0  0  0  0  0  0  0
   -6.8401  -15.0658   12.1371 C   0  0  0  0  0  0  0  0  0  0  0  0
   -7.4722  -14.4261   11.0263 O   0  0  0  0  0  0  0  0  0  0  0  0
   -5.8860  -14.0823   12.8165 C   0  0  0  0  0  0  0  0  0  0  0  0
   -4.8648  -13.6941   11.8952 O   0  0  0  0  0  0  0  0  0  0  0  0
  1  2  1  0
  2  3  2  0
  2 11  1  0
  3  4  1  0
  3  8  1  0
  4  5  2  0
  5  6  1  0
  5 23  1  0
  6  7  2  0
  7  8  1  0
  8  9  2  0
  9 10  1  0
 10 11  2  0
 10 12  1  0
 12 13  1  0
 13 14  2  0
 13 15  1  0
 15 16  2  0
 15 19  1  0
 16 17  1  0
 17 18  1  0
 17 21  1  0
 18 19  2  0
 18 20  1  0
 21 22  1  0
 23 24  1  0
 23 25  1  0
 25 26  1  0
 25 27  1  0
 27 28  1  0
M  END
>  <Gold.Gold.Protein.RotatedWaterAtoms>  (657) 


>  <Gold.Id.Protein>  (657) 


>  <Gold.PLP.Chemscore.CHOScore>  (657) 
0.0000

>  <Gold.PLP.Chemscore.Hbond>  (657) 
2.1538

>  <Gold.PLP.Chemscore.Internal.Correction>  (657) 
0.6603

>  <Gold.PLP.Chemscore.Metal>  (657) 
0.0000

>  <Gold.PLP.Fitness>  (657) 
54.0046

>  <Gold.PLP.PLP>  (657) 
-49.8128

>  <Gold.PLP.ligand.clash>  (657) 
0.0000

>  <Gold.PLP.ligand.torsion>  (657) 
1.4650

>  <Gold.PLP.part.buried>  (657) 
-5.4911

>  <Gold.PLP.part.hbond>  (657) 
-4.2784

>  <Gold.PLP.part.metal>  (657) 
0.0000

>  <Gold.PLP.part.nonpolar>  (657) 
-40.6393

>  <Gold.PLP.part.repulsive>  (657) 
0.1185

>  <Gold.Protein.RotatedAtoms>  (657) 


>  <Gold.Protein.RotatedTorsions>  (657) 


>  <Gold.Protein.RotatedWaterAtoms>  (657) 


>  <Gold.Version>  (657) 
5.3.0

>  <PLP.Chemscore.CHOScore>  (657) 


>  <PLP.Chemscore.Hbond>  (657) 


>  <PLP.Chemscore.Internal.Correction>  (657) 


>  <PLP.Chemscore.Metal>  (657) 


>  <PLP.Fitness>  (657) 


>  <PLP.PLP>  (657) 


>  <PLP.ligand.clash>  (657) 


>  <PLP.ligand.torsion>  (657) 


>  <PLP.part.buried>  (657) 


>  <PLP.part.hbond>  (657) 


>  <PLP.part.metal>  (657) 


>  <PLP.part.nonpolar>  (657) 


>  <PLP.part.repulsive>  (657) 


>  <Version>  (657) 


$$$$
3657|Compound_2218|Compounds_3D_F|sdf|657|dock8|1
     RDKit          3D

 28 30  0  0  0  0  0  0  0  0999 V2000
  -10.4387  -15.7858   12.7788 O   0  0  0  0  0  0  0  0  0  0  0  0
   -9.9048  -16.5688   11.8137 C   0  0  0  0  0  0  0  0  0  0  0  0
   -8.6229  -16.2859   11.2760 C   0  0  0  0  0  0  0  0  0  0  0  0
   -7.8979  -15.2503   11.6936 N   0  0  0  0  0  0  0  0  0  0  0  0
   -6.7149  -15.0300   11.1643 C   0  0  0  0  0  0  0  0  0  0  0  0
   -6.2128  -15.8697   10.1703 C   0  0  0  0  0  0  0  0  0  0  0  0
   -6.9119  -16.8989    9.7428 N   0  0  0  0  0  0  0  0  0  0  0  0
   -8.1159  -17.1419   10.2667 C   0  0  0  0  0  0  0  0  0  0  0  0
   -8.8641  -18.1768    9.8648 N   0  0  0  0  0  0  0  0  0  0  0  0
  -10.0500  -18.3928   10.3997 C   0  0  0  0  0  0  0  0  0  0  0  0
  -10.5624  -17.6182   11.3523 N   0  0  0  0  0  0  0  0  0  0  0  0
  -10.7925  -19.4758    9.9540 N   0  0  0  0  0  0  0  0  0  0  0  0
  -11.9938  -19.2778    9.3758 C   0  0  0  0  0  0  0  0  0  0  0  0
  -12.4259  -18.1485    9.2448 O   0  0  0  0  0  0  0  0  0  0  0  0
  -12.7847  -20.4312    8.9020 C   0  0  0  0  0  0  0  0  0  0  0  0
  -12.3327  -21.6454    8.6605 N   0  0  0  0  0  0  0  0  0  0  0  0
  -13.2920  -22.4006    8.2606 N   0  0  0  0  0  0  0  0  0  0  0  0
  -14.4487  -21.7049    8.2195 C   0  0  0  0  0  0  0  0  0  0  0  0
  -14.1725  -20.4438    8.6268 C   0  0  0  0  0  0  0  0  0  0  0  0
  -15.7964  -22.2359    7.8036 C   0  0  0  0  0  0  0  0  0  0  0  0
  -13.1511  -23.8140    7.9018 C   0  0  0  0  0  0  0  0  0  0  0  0
  -11.7812  -24.0443    7.2599 C   0  0  0  0  0  0  0  0  0  0  0  0
   -5.8939  -13.8576   11.6363 C   0  0  0  0  0  0  0  0  0  0  0  0
   -4.8418  -14.3230   12.4830 O   0  0  0  0  0  0  0  0  0  0  0  0
   -6.7858  -12.8899   12.4154 C   0  0  0  0  0  0  0  0  0  0  0  0
   -7.9524  -12.5922   11.6454 O   0  0  0  0  0  0  0  0  0  0  0  0
   -6.0160  -11.5983   12.6948 C   0  0  0  0  0  0  0  0  0  0  0  0
   -4.7311  -11.9154   13.2340 O   0  0  0  0  0  0  0  0  0  0  0  0
  1  2  1  0
  2  3  2  0
  2 11  1  0
  3  4  1  0
  3  8  1  0
  4  5  2  0
  5  6  1  0
  5 23  1  0
  6  7  2  0
  7  8  1  0
  8  9  2  0
  9 10  1  0
 10 11  2  0
 10 12  1  0
 12 13  1  0
 13 14  2  0
 13 15  1  0
 15 16  2  0
 15 19  1  0
 16 17  1  0
 17 18  1  0
 17 21  1  0
 18 19  2  0
 18 20  1  0
 21 22  1  0
 23 24  1  0
 23 25  1  0
 25 26  1  0
 25 27  1  0
 27 28  1  0
M  END
>  <Gold.Gold.Protein.RotatedWaterAtoms>  (658) 


>  <Gold.Id.Protein>  (658) 


>  <Gold.PLP.Chemscore.CHOScore>  (658) 
0.6644

>  <Gold.PLP.Chemscore.Hbond>  (658) 
2.3048

>  <Gold.PLP.Chemscore.Internal.Correction>  (658) 
0.6033

>  <Gold.PLP.Chemscore.Metal>  (658) 
0.0000

>  <Gold.PLP.Fitness>  (658) 
58.7562

>  <Gold.PLP.PLP>  (658) 
-52.5189

>  <Gold.PLP.ligand.clash>  (658) 
0.0000

>  <Gold.PLP.ligand.torsion>  (658) 
1.6368

>  <Gold.PLP.part.buried>  (658) 
-3.6071

>  <Gold.PLP.part.hbond>  (658) 
-7.4282

>  <Gold.PLP.part.metal>  (658) 
0.0000

>  <Gold.PLP.part.nonpolar>  (658) 
-42.2214

>  <Gold.PLP.part.repulsive>  (658) 
0.1797

>  <Gold.Protein.RotatedAtoms>  (658) 


>  <Gold.Protein.RotatedTorsions>  (658) 


>  <Gold.Protein.RotatedWaterAtoms>  (658) 


>  <Gold.Version>  (658) 
5.3.0

>  <PLP.Chemscore.CHOScore>  (658) 


>  <PLP.Chemscore.Hbond>  (658) 


>  <PLP.Chemscore.Internal.Correction>  (658) 


>  <PLP.Chemscore.Metal>  (658) 


>  <PLP.Fitness>  (658) 


>  <PLP.PLP>  (658) 


>  <PLP.ligand.clash>  (658) 


>  <PLP.ligand.torsion>  (658) 


>  <PLP.part.buried>  (658) 


>  <PLP.part.hbond>  (658) 


>  <PLP.part.metal>  (658) 


>  <PLP.part.nonpolar>  (658) 


>  <PLP.part.repulsive>  (658) 


>  <Version>  (658) 


$$$$
3658|Compound_2218|Compounds_3D_F|sdf|657|dock9|1
     RDKit          3D

 28 30  0  0  0  0  0  0  0  0999 V2000
  -10.5920  -15.5361   13.0089 O   0  0  0  0  0  0  0  0  0  0  0  0
  -10.1147  -16.5452   12.2450 C   0  0  0  0  0  0  0  0  0  0  0  0
   -8.7867  -16.5134   11.7473 C   0  0  0  0  0  0  0  0  0  0  0  0
   -7.9620  -15.5013   12.0079 N   0  0  0  0  0  0  0  0  0  0  0  0
   -6.7398  -15.5182   11.5238 C   0  0  0  0  0  0  0  0  0  0  0  0
   -6.2997  -16.5848   10.7404 C   0  0  0  0  0  0  0  0  0  0  0  0
   -7.0976  -17.5953   10.4705 N   0  0  0  0  0  0  0  0  0  0  0  0
   -8.3430  -17.5994   10.9522 C   0  0  0  0  0  0  0  0  0  0  0  0
   -9.1913  -18.6053   10.7054 N   0  0  0  0  0  0  0  0  0  0  0  0
  -10.4161  -18.5829   11.1940 C   0  0  0  0  0  0  0  0  0  0  0  0
  -10.8725  -17.5867   11.9484 N   0  0  0  0  0  0  0  0  0  0  0  0
  -11.2627  -19.6447   10.9137 N   0  0  0  0  0  0  0  0  0  0  0  0
  -11.3090  -20.1601    9.6692 C   0  0  0  0  0  0  0  0  0  0  0  0
  -10.6074  -19.6934    8.7922 O   0  0  0  0  0  0  0  0  0  0  0  0
  -12.2111  -21.2903    9.3708 C   0  0  0  0  0  0  0  0  0  0  0  0
  -13.0241  -21.3930    8.3385 N   0  0  0  0  0  0  0  0  0  0  0  0
  -13.6628  -22.5065    8.3906 N   0  0  0  0  0  0  0  0  0  0  0  0
  -13.2922  -23.2075    9.4836 C   0  0  0  0  0  0  0  0  0  0  0  0
  -12.3622  -22.4710   10.1357 C   0  0  0  0  0  0  0  0  0  0  0  0
  -13.8128  -24.5602    9.8965 C   0  0  0  0  0  0  0  0  0  0  0  0
  -14.6507  -22.9520    7.4047 C   0  0  0  0  0  0  0  0  0  0  0  0
  -16.0087  -23.1310    8.0868 C   0  0  0  0  0  0  0  0  0  0  0  0
   -5.8058  -14.3726   11.8181 C   0  0  0  0  0  0  0  0  0  0  0  0
   -4.8036  -14.8003   12.7416 O   0  0  0  0  0  0  0  0  0  0  0  0
   -6.5961  -13.2118   12.4240 C   0  0  0  0  0  0  0  0  0  0  0  0
   -7.7330  -12.9305   11.6050 O   0  0  0  0  0  0  0  0  0  0  0  0
   -5.7041  -11.9719   12.5011 C   0  0  0  0  0  0  0  0  0  0  0  0
   -4.6196  -12.2191   13.3984 O   0  0  0  0  0  0  0  0  0  0  0  0
  1  2  1  0
  2  3  2  0
  2 11  1  0
  3  4  1  0
  3  8  1  0
  4  5  2  0
  5  6  1  0
  5 23  1  0
  6  7  2  0
  7  8  1  0
  8  9  2  0
  9 10  1  0
 10 11  2  0
 10 12  1  0
 12 13  1  0
 13 14  2  0
 13 15  1  0
 15 16  2  0
 15 19  1  0
 16 17  1  0
 17 18  1  0
 17 21  1  0
 18 19  2  0
 18 20  1  0
 21 22  1  0
 23 24  1  0
 23 25  1  0
 25 26  1  0
 25 27  1  0
 27 28  1  0
M  END
>  <Gold.Gold.Protein.RotatedWaterAtoms>  (659) 


>  <Gold.Id.Protein>  (659) 


>  <Gold.PLP.Chemscore.CHOScore>  (659) 
0.0000

>  <Gold.PLP.Chemscore.Hbond>  (659) 
4.1941

>  <Gold.PLP.Chemscore.Internal.Correction>  (659) 
0.6033

>  <Gold.PLP.Chemscore.Metal>  (659) 
0.0000

>  <Gold.PLP.Fitness>  (659) 
59.9575

>  <Gold.PLP.PLP>  (659) 
-49.8039

>  <Gold.PLP.ligand.clash>  (659) 
0.0000

>  <Gold.PLP.ligand.torsion>  (659) 
1.5161

>  <Gold.PLP.part.buried>  (659) 
-5.3114

>  <Gold.PLP.part.hbond>  (659) 
-9.0068

>  <Gold.PLP.part.metal>  (659) 
0.0000

>  <Gold.PLP.part.nonpolar>  (659) 
-35.4568

>  <Gold.PLP.part.repulsive>  (659) 
0.1660

>  <Gold.Protein.RotatedAtoms>  (659) 


>  <Gold.Protein.RotatedTorsions>  (659) 


>  <Gold.Protein.RotatedWaterAtoms>  (659) 


>  <Gold.Version>  (659) 
5.3.0

>  <PLP.Chemscore.CHOScore>  (659) 


>  <PLP.Chemscore.Hbond>  (659) 


>  <PLP.Chemscore.Internal.Correction>  (659) 


>  <PLP.Chemscore.Metal>  (659) 


>  <PLP.Fitness>  (659) 


>  <PLP.PLP>  (659) 


>  <PLP.ligand.clash>  (659) 


>  <PLP.ligand.torsion>  (659) 


>  <PLP.part.buried>  (659) 


>  <PLP.part.hbond>  (659) 


>  <PLP.part.metal>  (659) 


>  <PLP.part.nonpolar>  (659) 


>  <PLP.part.repulsive>  (659) 


>  <Version>  (659) 


$$$$
3659|Compound_2219|Compounds_3D_F|sdf|658|dock1|1
     RDKit          3D

 20 21  0  0  0  0  0  0  0  0999 V2000
   -9.2674  -17.8044   11.5745 N   0  0  0  0  0  0  0  0  0  0  0  0
   -9.0059  -16.5244   11.9067 C   0  0  0  0  0  0  0  0  0  0  0  0
   -9.9205  -15.7475   12.0973 O   0  0  0  0  0  0  0  0  0  0  0  0
   -7.6078  -16.0668   12.0391 C   0  0  0  0  0  0  0  0  0  0  0  0
   -7.2022  -14.8238   12.2100 N   0  0  0  0  0  0  0  0  0  0  0  0
   -5.9202  -14.7853   12.2867 N   0  0  0  0  0  0  0  0  0  0  0  0
   -5.4083  -16.0292   12.1663 C   0  0  0  0  0  0  0  0  0  0  0  0
   -6.4496  -16.8790   12.0129 C   0  0  0  0  0  0  0  0  0  0  0  0
   -3.9477  -16.4011   12.2027 C   0  0  0  0  0  0  0  0  0  0  0  0
   -5.1287  -13.5674   12.4753 C   0  0  0  0  0  0  0  0  0  0  0  0
   -6.0614  -12.3551   12.5144 C   0  0  0  0  0  0  0  0  0  0  0  0
  -10.5867  -18.2356   11.4445 C   0  0  0  0  0  0  0  0  0  0  0  0
  -11.6005  -17.8992   12.1974 N   0  0  0  0  0  0  0  0  0  0  0  0
  -12.6198  -18.4387   11.8337 O   0  0  0  0  0  0  0  0  0  0  0  0
  -12.4139  -19.2242   10.7673 C   0  0  0  0  0  0  0  0  0  0  0  0
  -11.1001  -19.1257   10.4632 C   0  0  0  0  0  0  0  0  0  0  0  0
  -13.4467  -20.0495   10.0431 C   0  0  0  0  0  0  0  0  0  0  0  0
  -14.4969  -19.1229    9.4251 C   0  0  0  0  0  0  0  0  0  0  0  0
  -12.7673  -20.8599    8.9375 C   0  0  0  0  0  0  0  0  0  0  0  0
  -14.1245  -21.0008   11.0314 C   0  0  0  0  0  0  0  0  0  0  0  0
  1  2  1  0
  1 12  1  0
  2  3  2  0
  2  4  1  0
  4  5  2  0
  4  8  1  0
  5  6  1  0
  6  7  1  0
  6 10  1  0
  7  8  2  0
  7  9  1  0
 10 11  1  0
 12 13  2  0
 12 16  1  0
 13 14  1  0
 14 15  1  0
 15 16  2  0
 15 17  1  0
 17 18  1  0
 17 19  1  0
 17 20  1  0
M  END
>  <Gold.Gold.Protein.RotatedWaterAtoms>  (660) 


>  <Gold.Id.Protein>  (660) 


>  <Gold.PLP.Chemscore.CHOScore>  (660) 
0.0000

>  <Gold.PLP.Chemscore.Hbond>  (660) 
1.7137

>  <Gold.PLP.Chemscore.Internal.Correction>  (660) 
0.0605

>  <Gold.PLP.Chemscore.Metal>  (660) 
0.0000

>  <Gold.PLP.Fitness>  (660) 
53.2770

>  <Gold.PLP.PLP>  (660) 
-48.8287

>  <Gold.PLP.ligand.clash>  (660) 
0.0000

>  <Gold.PLP.ligand.torsion>  (660) 
0.3766

>  <Gold.PLP.part.buried>  (660) 
-7.7717

>  <Gold.PLP.part.hbond>  (660) 
-2.2404

>  <Gold.PLP.part.metal>  (660) 
0.0000

>  <Gold.PLP.part.nonpolar>  (660) 
-39.6695

>  <Gold.PLP.part.repulsive>  (660) 
0.3144

>  <Gold.Protein.RotatedAtoms>  (660) 


>  <Gold.Protein.RotatedTorsions>  (660) 


>  <Gold.Protein.RotatedWaterAtoms>  (660) 


>  <Gold.Version>  (660) 
5.3.0

>  <PLP.Chemscore.CHOScore>  (660) 


>  <PLP.Chemscore.Hbond>  (660) 


>  <PLP.Chemscore.Internal.Correction>  (660) 


>  <PLP.Chemscore.Metal>  (660) 


>  <PLP.Fitness>  (660) 


>  <PLP.PLP>  (660) 


>  <PLP.ligand.clash>  (660) 


>  <PLP.ligand.torsion>  (660) 


>  <PLP.part.buried>  (660) 


>  <PLP.part.hbond>  (660) 


>  <PLP.part.metal>  (660) 


>  <PLP.part.nonpolar>  (660) 


>  <PLP.part.repulsive>  (660) 


>  <Version>  (660) 


$$$$
3660|Compound_2219|Compounds_3D_F|sdf|658|dock2|1
     RDKit          3D

 20 21  0  0  0  0  0  0  0  0999 V2000
  -10.5555  -17.3775   10.6891 N   0  0  0  0  0  0  0  0  0  0  0  0
   -9.2373  -17.3692   10.9708 C   0  0  0  0  0  0  0  0  0  0  0  0
   -8.5784  -18.3794   10.8231 O   0  0  0  0  0  0  0  0  0  0  0  0
   -8.5944  -16.1322   11.4588 C   0  0  0  0  0  0  0  0  0  0  0  0
   -9.1682  -14.9536   11.6011 N   0  0  0  0  0  0  0  0  0  0  0  0
   -8.3179  -14.1009   12.0491 N   0  0  0  0  0  0  0  0  0  0  0  0
   -7.1157  -14.6902   12.2265 C   0  0  0  0  0  0  0  0  0  0  0  0
   -7.2478  -15.9879   11.8684 C   0  0  0  0  0  0  0  0  0  0  0  0
   -5.8619  -14.0255   12.7354 C   0  0  0  0  0  0  0  0  0  0  0  0
   -8.6103  -12.6925   12.3253 C   0  0  0  0  0  0  0  0  0  0  0  0
   -7.5920  -11.8096   11.6008 C   0  0  0  0  0  0  0  0  0  0  0  0
  -11.1639  -18.5461   10.2333 C   0  0  0  0  0  0  0  0  0  0  0  0
  -10.5673  -19.6146    9.7748 N   0  0  0  0  0  0  0  0  0  0  0  0
  -11.3659  -20.4647    9.4559 O   0  0  0  0  0  0  0  0  0  0  0  0
  -12.6282  -20.0646    9.6636 C   0  0  0  0  0  0  0  0  0  0  0  0
  -12.5578  -18.8164   10.1786 C   0  0  0  0  0  0  0  0  0  0  0  0
  -13.8815  -20.8548    9.3856 C   0  0  0  0  0  0  0  0  0  0  0  0
  -15.1067  -20.0017    9.7236 C   0  0  0  0  0  0  0  0  0  0  0  0
  -13.9216  -21.2421    7.9060 C   0  0  0  0  0  0  0  0  0  0  0  0
  -13.8883  -22.1202   10.2457 C   0  0  0  0  0  0  0  0  0  0  0  0
  1  2  1  0
  1 12  1  0
  2  3  2  0
  2  4  1  0
  4  5  2  0
  4  8  1  0
  5  6  1  0
  6  7  1  0
  6 10  1  0
  7  8  2  0
  7  9  1  0
 10 11  1  0
 12 13  2  0
 12 16  1  0
 13 14  1  0
 14 15  1  0
 15 16  2  0
 15 17  1  0
 17 18  1  0
 17 19  1  0
 17 20  1  0
M  END
>  <Gold.Gold.Protein.RotatedWaterAtoms>  (661) 


>  <Gold.Id.Protein>  (661) 


>  <Gold.PLP.Chemscore.CHOScore>  (661) 
0.0000

>  <Gold.PLP.Chemscore.Hbond>  (661) 
1.3110

>  <Gold.PLP.Chemscore.Internal.Correction>  (661) 
0.0128

>  <Gold.PLP.Chemscore.Metal>  (661) 
0.0000

>  <Gold.PLP.Fitness>  (661) 
51.8940

>  <Gold.PLP.PLP>  (661) 
-48.1976

>  <Gold.PLP.ligand.clash>  (661) 
0.0000

>  <Gold.PLP.ligand.torsion>  (661) 
0.1246

>  <Gold.PLP.part.buried>  (661) 
-9.4643

>  <Gold.PLP.part.hbond>  (661) 
-1.9116

>  <Gold.PLP.part.metal>  (661) 
0.0000

>  <Gold.PLP.part.nonpolar>  (661) 
-37.2783

>  <Gold.PLP.part.repulsive>  (661) 
0.1566

>  <Gold.Protein.RotatedAtoms>  (661) 


>  <Gold.Protein.RotatedTorsions>  (661) 


>  <Gold.Protein.RotatedWaterAtoms>  (661) 


>  <Gold.Version>  (661) 
5.3.0

>  <PLP.Chemscore.CHOScore>  (661) 


>  <PLP.Chemscore.Hbond>  (661) 


>  <PLP.Chemscore.Internal.Correction>  (661) 


>  <PLP.Chemscore.Metal>  (661) 


>  <PLP.Fitness>  (661) 


>  <PLP.PLP>  (661) 


>  <PLP.ligand.clash>  (661) 


>  <PLP.ligand.torsion>  (661) 


>  <PLP.part.buried>  (661) 


>  <PLP.part.hbond>  (661) 


>  <PLP.part.metal>  (661) 


>  <PLP.part.nonpolar>  (661) 


>  <PLP.part.repulsive>  (661) 


>  <Version>  (661) 


$$$$
3661|Compound_2219|Compounds_3D_F|sdf|658|dock3|1
     RDKit          3D

 20 21  0  0  0  0  0  0  0  0999 V2000
   -8.9300  -18.5403   10.9805 N   0  0  0  0  0  0  0  0  0  0  0  0
   -8.8918  -17.2923   11.4885 C   0  0  0  0  0  0  0  0  0  0  0  0
   -9.9265  -16.6946   11.7092 O   0  0  0  0  0  0  0  0  0  0  0  0
   -7.5924  -16.6519   11.7767 C   0  0  0  0  0  0  0  0  0  0  0  0
   -7.3955  -15.3897   12.1039 N   0  0  0  0  0  0  0  0  0  0  0  0
   -6.1423  -15.1721   12.2854 N   0  0  0  0  0  0  0  0  0  0  0  0
   -5.4377  -16.3059   12.0809 C   0  0  0  0  0  0  0  0  0  0  0  0
   -6.3232  -17.2770   11.7605 C   0  0  0  0  0  0  0  0  0  0  0  0
   -3.9424  -16.4608   12.1952 C   0  0  0  0  0  0  0  0  0  0  0  0
   -5.5621  -13.8799   12.6581 C   0  0  0  0  0  0  0  0  0  0  0  0
   -6.6177  -12.7835   12.5007 C   0  0  0  0  0  0  0  0  0  0  0  0
  -10.1560  -19.1434   10.7035 C   0  0  0  0  0  0  0  0  0  0  0  0
  -10.4775  -20.3948   10.8994 N   0  0  0  0  0  0  0  0  0  0  0  0
  -11.6163  -20.6175   10.5591 O   0  0  0  0  0  0  0  0  0  0  0  0
  -12.2162  -19.5189   10.0796 C   0  0  0  0  0  0  0  0  0  0  0  0
  -11.3089  -18.5192   10.1558 C   0  0  0  0  0  0  0  0  0  0  0  0
  -13.6289  -19.4157    9.5641 C   0  0  0  0  0  0  0  0  0  0  0  0
  -13.8268  -20.4116    8.4185 C   0  0  0  0  0  0  0  0  0  0  0  0
  -14.6084  -19.7371   10.6946 C   0  0  0  0  0  0  0  0  0  0  0  0
  -13.8840  -17.9956    9.0549 C   0  0  0  0  0  0  0  0  0  0  0  0
  1  2  1  0
  1 12  1  0
  2  3  2  0
  2  4  1  0
  4  5  2  0
  4  8  1  0
  5  6  1  0
  6  7  1  0
  6 10  1  0
  7  8  2  0
  7  9  1  0
 10 11  1  0
 12 13  2  0
 12 16  1  0
 13 14  1  0
 14 15  1  0
 15 16  2  0
 15 17  1  0
 17 18  1  0
 17 19  1  0
 17 20  1  0
M  END
>  <Gold.Gold.Protein.RotatedWaterAtoms>  (662) 


>  <Gold.Id.Protein>  (662) 


>  <Gold.PLP.Chemscore.CHOScore>  (662) 
0.0000

>  <Gold.PLP.Chemscore.Hbond>  (662) 
0.8640

>  <Gold.PLP.Chemscore.Internal.Correction>  (662) 
0.0128

>  <Gold.PLP.Chemscore.Metal>  (662) 
0.0000

>  <Gold.PLP.Fitness>  (662) 
54.2065

>  <Gold.PLP.PLP>  (662) 
-52.5956

>  <Gold.PLP.ligand.clash>  (662) 
0.0000

>  <Gold.PLP.ligand.torsion>  (662) 
0.4969

>  <Gold.PLP.part.buried>  (662) 
-7.4267

>  <Gold.PLP.part.hbond>  (662) 
-1.0000

>  <Gold.PLP.part.metal>  (662) 
0.0000

>  <Gold.PLP.part.nonpolar>  (662) 
-44.7993

>  <Gold.PLP.part.repulsive>  (662) 
0.1232

>  <Gold.Protein.RotatedAtoms>  (662) 


>  <Gold.Protein.RotatedTorsions>  (662) 


>  <Gold.Protein.RotatedWaterAtoms>  (662) 


>  <Gold.Version>  (662) 
5.3.0

>  <PLP.Chemscore.CHOScore>  (662) 


>  <PLP.Chemscore.Hbond>  (662) 


>  <PLP.Chemscore.Internal.Correction>  (662) 


>  <PLP.Chemscore.Metal>  (662) 


>  <PLP.Fitness>  (662) 


>  <PLP.PLP>  (662) 


>  <PLP.ligand.clash>  (662) 


>  <PLP.ligand.torsion>  (662) 


>  <PLP.part.buried>  (662) 


>  <PLP.part.hbond>  (662) 


>  <PLP.part.metal>  (662) 


>  <PLP.part.nonpolar>  (662) 


>  <PLP.part.repulsive>  (662) 


>  <Version>  (662) 


$$$$
3662|Compound_2219|Compounds_3D_F|sdf|658|dock4|1
     RDKit          3D

 20 21  0  0  0  0  0  0  0  0999 V2000
   -8.9274  -18.5966   10.9445 N   0  0  0  0  0  0  0  0  0  0  0  0
   -8.9266  -17.3873   11.5400 C   0  0  0  0  0  0  0  0  0  0  0  0
   -9.9783  -16.8557   11.8366 O   0  0  0  0  0  0  0  0  0  0  0  0
   -7.6474  -16.7089   11.8319 C   0  0  0  0  0  0  0  0  0  0  0  0
   -7.4925  -15.4533   12.2038 N   0  0  0  0  0  0  0  0  0  0  0  0
   -6.2455  -15.1949   12.3736 N   0  0  0  0  0  0  0  0  0  0  0  0
   -5.5023  -16.2925   12.1151 C   0  0  0  0  0  0  0  0  0  0  0  0
   -6.3561  -17.2840   11.7719 C   0  0  0  0  0  0  0  0  0  0  0  0
   -4.0005  -16.3942   12.1998 C   0  0  0  0  0  0  0  0  0  0  0  0
   -5.7080  -13.8963   12.7861 C   0  0  0  0  0  0  0  0  0  0  0  0
   -6.7419  -12.8044   12.5035 C   0  0  0  0  0  0  0  0  0  0  0  0
  -10.1346  -19.2351   10.6641 C   0  0  0  0  0  0  0  0  0  0  0  0
  -10.4175  -20.4971   10.8521 N   0  0  0  0  0  0  0  0  0  0  0  0
  -11.5491  -20.7523   10.5108 O   0  0  0  0  0  0  0  0  0  0  0  0
  -12.1827  -19.6695   10.0388 C   0  0  0  0  0  0  0  0  0  0  0  0
  -11.3065  -18.6430   10.1210 C   0  0  0  0  0  0  0  0  0  0  0  0
  -13.5983  -19.6064    9.5246 C   0  0  0  0  0  0  0  0  0  0  0  0
  -13.7576  -20.5767    8.3514 C   0  0  0  0  0  0  0  0  0  0  0  0
  -14.5649  -19.9966   10.6445 C   0  0  0  0  0  0  0  0  0  0  0  0
  -13.9077  -18.1834    9.0549 C   0  0  0  0  0  0  0  0  0  0  0  0
  1  2  1  0
  1 12  1  0
  2  3  2  0
  2  4  1  0
  4  5  2  0
  4  8  1  0
  5  6  1  0
  6  7  1  0
  6 10  1  0
  7  8  2  0
  7  9  1  0
 10 11  1  0
 12 13  2  0
 12 16  1  0
 13 14  1  0
 14 15  1  0
 15 16  2  0
 15 17  1  0
 17 18  1  0
 17 19  1  0
 17 20  1  0
M  END
>  <Gold.Gold.Protein.RotatedWaterAtoms>  (663) 


>  <Gold.Id.Protein>  (663) 


>  <Gold.PLP.Chemscore.CHOScore>  (663) 
0.0000

>  <Gold.PLP.Chemscore.Hbond>  (663) 
0.9760

>  <Gold.PLP.Chemscore.Internal.Correction>  (663) 
0.0038

>  <Gold.PLP.Chemscore.Metal>  (663) 
0.0000

>  <Gold.PLP.Fitness>  (663) 
54.0274

>  <Gold.PLP.PLP>  (663) 
-52.5104

>  <Gold.PLP.ligand.clash>  (663) 
0.0000

>  <Gold.PLP.ligand.torsion>  (663) 
0.7074

>  <Gold.PLP.part.buried>  (663) 
-8.3869

>  <Gold.PLP.part.hbond>  (663) 
-1.0000

>  <Gold.PLP.part.metal>  (663) 
0.0000

>  <Gold.PLP.part.nonpolar>  (663) 
-44.4893

>  <Gold.PLP.part.repulsive>  (663) 
0.1309

>  <Gold.Protein.RotatedAtoms>  (663) 


>  <Gold.Protein.RotatedTorsions>  (663) 


>  <Gold.Protein.RotatedWaterAtoms>  (663) 


>  <Gold.Version>  (663) 
5.3.0

>  <PLP.Chemscore.CHOScore>  (663) 


>  <PLP.Chemscore.Hbond>  (663) 


>  <PLP.Chemscore.Internal.Correction>  (663) 


>  <PLP.Chemscore.Metal>  (663) 


>  <PLP.Fitness>  (663) 


>  <PLP.PLP>  (663) 


>  <PLP.ligand.clash>  (663) 


>  <PLP.ligand.torsion>  (663) 


>  <PLP.part.buried>  (663) 


>  <PLP.part.hbond>  (663) 


>  <PLP.part.metal>  (663) 


>  <PLP.part.nonpolar>  (663) 


>  <PLP.part.repulsive>  (663) 


>  <Version>  (663) 


$$$$
3663|Compound_2222|Compounds_3D_F|sdf|659|dock1|1
     RDKit          3D

 30 33  0  0  0  0  0  0  0  0999 V2000
   -6.3451  -21.5787    8.8096 O   0  0  0  0  0  0  0  0  0  0  0  0
   -5.7478  -20.5571    9.4694 C   0  0  0  0  0  0  0  0  0  0  0  0
   -4.4301  -20.5265    9.6179 N   0  0  0  0  0  0  0  0  0  0  0  0
   -3.8352  -19.5305   10.2615 C   0  0  0  0  0  0  0  0  0  0  0  0
   -4.5136  -18.5239   10.7871 N   0  0  0  0  0  0  0  0  0  0  0  0
   -5.8374  -18.4766   10.6847 C   0  0  0  0  0  0  0  0  0  0  0  0
   -6.5091  -19.5072   10.0061 C   0  0  0  0  0  0  0  0  0  0  0  0
   -7.8325  -19.2174   10.0485 N   0  0  0  0  0  0  0  0  0  0  0  0
   -8.0107  -18.1010   10.6940 C   0  0  0  0  0  0  0  0  0  0  0  0
   -6.8091  -17.6028   11.1033 N   0  0  0  0  0  0  0  0  0  0  0  0
   -6.5953  -16.3658   11.8591 C   0  0  0  0  0  0  0  0  0  0  0  0
   -7.8285  -15.6216   11.9633 O   0  0  0  0  0  0  0  0  0  0  0  0
   -7.4300  -14.2644   12.2550 C   0  0  0  0  0  0  0  0  0  0  0  0
   -8.5552  -13.2906   11.8964 C   0  0  0  0  0  0  0  0  0  0  0  0
   -9.3950  -13.8786   10.9015 O   0  0  0  0  0  0  0  0  0  0  0  0
   -6.1946  -14.0149   11.3629 C   0  0  0  0  0  0  0  0  0  0  0  0
   -5.2326  -13.2131   12.0514 O   0  0  0  0  0  0  0  0  0  0  0  0
   -5.6303  -15.4310   11.0978 C   0  0  0  0  0  0  0  0  0  0  0  0
   -4.3032  -15.5462   11.6146 O   0  0  0  0  0  0  0  0  0  0  0  0
   -2.4520  -19.5454   10.3879 N   0  0  0  0  0  0  0  0  0  0  0  0
   -1.7615  -18.3876   10.3822 C   0  0  0  0  0  0  0  0  0  0  0  0
   -2.3504  -17.3303   10.2687 O   0  0  0  0  0  0  0  0  0  0  0  0
   -0.2914  -18.4035   10.5167 C   0  0  0  0  0  0  0  0  0  0  0  0
    0.5290  -17.4005   10.2753 N   0  0  0  0  0  0  0  0  0  0  0  0
    1.7428  -17.7608   10.4962 N   0  0  0  0  0  0  0  0  0  0  0  0
    1.7810  -19.0477   10.9035 C   0  0  0  0  0  0  0  0  0  0  0  0
    0.5042  -19.4962   10.9359 C   0  0  0  0  0  0  0  0  0  0  0  0
    3.0148  -19.8359   11.2597 C   0  0  0  0  0  0  0  0  0  0  0  0
    2.9157  -16.8988   10.3309 C   0  0  0  0  0  0  0  0  0  0  0  0
    2.8972  -15.8014   11.3960 C   0  0  0  0  0  0  0  0  0  0  0  0
  1  2  1  0
  2  3  2  0
  2  7  1  0
  3  4  1  0
  4  5  2  0
  4 20  1  0
  5  6  1  0
  6  7  2  0
  6 10  1  0
  7  8  1  0
  8  9  2  0
  9 10  1  0
 10 11  1  0
 11 12  1  0
 11 18  1  0
 12 13  1  0
 13 14  1  0
 13 16  1  0
 14 15  1  0
 16 17  1  0
 16 18  1  0
 18 19  1  0
 20 21  1  0
 21 22  2  0
 21 23  1  0
 23 24  2  0
 23 27  1  0
 24 25  1  0
 25 26  1  0
 25 29  1  0
 26 27  2  0
 26 28  1  0
 29 30  1  0
M  END
>  <Gold.Gold.Protein.RotatedWaterAtoms>  (664) 


>  <Gold.Id.Protein>  (664) 


>  <Gold.PLP.Chemscore.CHOScore>  (664) 
0.0000

>  <Gold.PLP.Chemscore.Hbond>  (664) 
3.6537

>  <Gold.PLP.Chemscore.Internal.Correction>  (664) 
0.4946

>  <Gold.PLP.Chemscore.Metal>  (664) 
0.0000

>  <Gold.PLP.Fitness>  (664) 
57.0822

>  <Gold.PLP.PLP>  (664) 
-47.4328

>  <Gold.PLP.ligand.clash>  (664) 
0.0000

>  <Gold.PLP.ligand.torsion>  (664) 
0.9031

>  <Gold.PLP.part.buried>  (664) 
-5.9591

>  <Gold.PLP.part.hbond>  (664) 
-6.8346

>  <Gold.PLP.part.metal>  (664) 
0.0000

>  <Gold.PLP.part.nonpolar>  (664) 
-34.8444

>  <Gold.PLP.part.repulsive>  (664) 
0.2265

>  <Gold.Protein.RotatedAtoms>  (664) 


>  <Gold.Protein.RotatedTorsions>  (664) 


>  <Gold.Protein.RotatedWaterAtoms>  (664) 


>  <Gold.Version>  (664) 
5.3.0

>  <PLP.Chemscore.CHOScore>  (664) 


>  <PLP.Chemscore.Hbond>  (664) 


>  <PLP.Chemscore.Internal.Correction>  (664) 


>  <PLP.Chemscore.Metal>  (664) 


>  <PLP.Fitness>  (664) 


>  <PLP.PLP>  (664) 


>  <PLP.ligand.clash>  (664) 


>  <PLP.ligand.torsion>  (664) 


>  <PLP.part.buried>  (664) 


>  <PLP.part.hbond>  (664) 


>  <PLP.part.metal>  (664) 


>  <PLP.part.nonpolar>  (664) 


>  <PLP.part.repulsive>  (664) 


>  <Version>  (664) 


$$$$
3664|Compound_2222|Compounds_3D_F|sdf|659|dock2|1
     RDKit          3D

 30 33  0  0  0  0  0  0  0  0999 V2000
   -8.0353  -18.8361    6.9203 O   0  0  0  0  0  0  0  0  0  0  0  0
   -8.1246  -18.4402    8.2129 C   0  0  0  0  0  0  0  0  0  0  0  0
   -8.7078  -19.2144    9.1185 N   0  0  0  0  0  0  0  0  0  0  0  0
   -8.7997  -18.8366   10.3870 C   0  0  0  0  0  0  0  0  0  0  0  0
   -8.3227  -17.6799   10.8161 N   0  0  0  0  0  0  0  0  0  0  0  0
   -7.7239  -16.8438    9.9749 C   0  0  0  0  0  0  0  0  0  0  0  0
   -7.5987  -17.2054    8.6230 C   0  0  0  0  0  0  0  0  0  0  0  0
   -6.9595  -16.1883    7.9949 N   0  0  0  0  0  0  0  0  0  0  0  0
   -6.6908  -15.2490    8.8552 C   0  0  0  0  0  0  0  0  0  0  0  0
   -7.1390  -15.6081   10.0920 N   0  0  0  0  0  0  0  0  0  0  0  0
   -7.0248  -14.8160   11.3195 C   0  0  0  0  0  0  0  0  0  0  0  0
   -7.7023  -13.5500   11.1649 O   0  0  0  0  0  0  0  0  0  0  0  0
   -7.1297  -12.6870   12.1716 C   0  0  0  0  0  0  0  0  0  0  0  0
   -7.3658  -11.2185   11.8104 C   0  0  0  0  0  0  0  0  0  0  0  0
   -8.6409  -11.0817   11.1810 O   0  0  0  0  0  0  0  0  0  0  0  0
   -5.6200  -13.0112   12.1576 C   0  0  0  0  0  0  0  0  0  0  0  0
   -5.0867  -12.9730   13.4830 O   0  0  0  0  0  0  0  0  0  0  0  0
   -5.5492  -14.4470   11.5856 C   0  0  0  0  0  0  0  0  0  0  0  0
   -4.9702  -15.3385   12.5403 O   0  0  0  0  0  0  0  0  0  0  0  0
   -9.4188  -19.6852   11.2960 N   0  0  0  0  0  0  0  0  0  0  0  0
  -10.5951  -19.3344   11.8533 C   0  0  0  0  0  0  0  0  0  0  0  0
  -11.1149  -18.2761   11.5581 O   0  0  0  0  0  0  0  0  0  0  0  0
  -11.2530  -20.2364   12.8193 C   0  0  0  0  0  0  0  0  0  0  0  0
  -10.7159  -21.2921   13.3977 N   0  0  0  0  0  0  0  0  0  0  0  0
  -11.5693  -21.8466   14.1826 N   0  0  0  0  0  0  0  0  0  0  0  0
  -12.7359  -21.1669   14.1589 C   0  0  0  0  0  0  0  0  0  0  0  0
  -12.5776  -20.1282   13.3055 C   0  0  0  0  0  0  0  0  0  0  0  0
  -13.9804  -21.5004   14.9403 C   0  0  0  0  0  0  0  0  0  0  0  0
  -11.3126  -23.0430   14.9882 C   0  0  0  0  0  0  0  0  0  0  0  0
  -11.5186  -22.7163   16.4680 C   0  0  0  0  0  0  0  0  0  0  0  0
  1  2  1  0
  2  3  2  0
  2  7  1  0
  3  4  1  0
  4  5  2  0
  4 20  1  0
  5  6  1  0
  6  7  2  0
  6 10  1  0
  7  8  1  0
  8  9  2  0
  9 10  1  0
 10 11  1  0
 11 12  1  0
 11 18  1  0
 12 13  1  0
 13 14  1  0
 13 16  1  0
 14 15  1  0
 16 17  1  0
 16 18  1  0
 18 19  1  0
 20 21  1  0
 21 22  2  0
 21 23  1  0
 23 24  2  0
 23 27  1  0
 24 25  1  0
 25 26  1  0
 25 29  1  0
 26 27  2  0
 26 28  1  0
 29 30  1  0
M  END
>  <Gold.Gold.Protein.RotatedWaterAtoms>  (665) 


>  <Gold.Id.Protein>  (665) 


>  <Gold.PLP.Chemscore.CHOScore>  (665) 
0.0000

>  <Gold.PLP.Chemscore.Hbond>  (665) 
1.7020

>  <Gold.PLP.Chemscore.Internal.Correction>  (665) 
0.4946

>  <Gold.PLP.Chemscore.Metal>  (665) 
0.0000

>  <Gold.PLP.Fitness>  (665) 
54.9195

>  <Gold.PLP.PLP>  (665) 
-51.4010

>  <Gold.PLP.ligand.clash>  (665) 
0.0000

>  <Gold.PLP.ligand.torsion>  (665) 
1.0410

>  <Gold.PLP.part.buried>  (665) 
-7.5976

>  <Gold.PLP.part.hbond>  (665) 
-4.6188

>  <Gold.PLP.part.metal>  (665) 
0.0000

>  <Gold.PLP.part.nonpolar>  (665) 
-42.4324

>  <Gold.PLP.part.repulsive>  (665) 
0.2605

>  <Gold.Protein.RotatedAtoms>  (665) 


>  <Gold.Protein.RotatedTorsions>  (665) 


>  <Gold.Protein.RotatedWaterAtoms>  (665) 


>  <Gold.Version>  (665) 
5.3.0

>  <PLP.Chemscore.CHOScore>  (665) 


>  <PLP.Chemscore.Hbond>  (665) 


>  <PLP.Chemscore.Internal.Correction>  (665) 


>  <PLP.Chemscore.Metal>  (665) 


>  <PLP.Fitness>  (665) 


>  <PLP.PLP>  (665) 


>  <PLP.ligand.clash>  (665) 


>  <PLP.ligand.torsion>  (665) 


>  <PLP.part.buried>  (665) 


>  <PLP.part.hbond>  (665) 


>  <PLP.part.metal>  (665) 


>  <PLP.part.nonpolar>  (665) 


>  <PLP.part.repulsive>  (665) 


>  <Version>  (665) 


$$$$
3665|Compound_2222|Compounds_3D_F|sdf|659|dock3|1
     RDKit          3D

 30 33  0  0  0  0  0  0  0  0999 V2000
   -4.9356  -20.8351    9.5045 O   0  0  0  0  0  0  0  0  0  0  0  0
   -5.9475  -19.9407    9.6130 C   0  0  0  0  0  0  0  0  0  0  0  0
   -7.1980  -20.2997    9.3545 N   0  0  0  0  0  0  0  0  0  0  0  0
   -8.1962  -19.4320    9.4584 C   0  0  0  0  0  0  0  0  0  0  0  0
   -8.0042  -18.1741    9.8196 N   0  0  0  0  0  0  0  0  0  0  0  0
   -6.7826  -17.7310   10.0961 C   0  0  0  0  0  0  0  0  0  0  0  0
   -5.6959  -18.6168   10.0051 C   0  0  0  0  0  0  0  0  0  0  0  0
   -4.5820  -17.9180   10.3342 N   0  0  0  0  0  0  0  0  0  0  0  0
   -4.9089  -16.6896   10.6151 C   0  0  0  0  0  0  0  0  0  0  0  0
   -6.2566  -16.5253   10.4866 N   0  0  0  0  0  0  0  0  0  0  0  0
   -7.0048  -15.2864   10.7151 C   0  0  0  0  0  0  0  0  0  0  0  0
   -6.0978  -14.1918   10.9697 O   0  0  0  0  0  0  0  0  0  0  0  0
   -6.8888  -13.1931   11.6503 C   0  0  0  0  0  0  0  0  0  0  0  0
   -5.9817  -12.2274   12.4166 C   0  0  0  0  0  0  0  0  0  0  0  0
   -5.0162  -12.9709   13.1622 O   0  0  0  0  0  0  0  0  0  0  0  0
   -7.7770  -13.9920   12.6286 C   0  0  0  0  0  0  0  0  0  0  0  0
   -9.0782  -13.4073   12.7161 O   0  0  0  0  0  0  0  0  0  0  0  0
   -7.8575  -15.4022   11.9973 C   0  0  0  0  0  0  0  0  0  0  0  0
   -9.2103  -15.7308   11.6760 O   0  0  0  0  0  0  0  0  0  0  0  0
   -9.4878  -19.8593    9.1779 N   0  0  0  0  0  0  0  0  0  0  0  0
  -10.5358  -19.3073    9.8215 C   0  0  0  0  0  0  0  0  0  0  0  0
  -10.3500  -18.4337   10.6459 O   0  0  0  0  0  0  0  0  0  0  0  0
  -11.9085  -19.7615    9.5232 C   0  0  0  0  0  0  0  0  0  0  0  0
  -12.2657  -20.6134    8.5829 N   0  0  0  0  0  0  0  0  0  0  0  0
  -13.5394  -20.7837    8.6031 N   0  0  0  0  0  0  0  0  0  0  0  0
  -14.0951  -20.0355    9.5803 C   0  0  0  0  0  0  0  0  0  0  0  0
  -13.0901  -19.3703   10.1966 C   0  0  0  0  0  0  0  0  0  0  0  0
  -15.5604  -19.9590    9.9232 C   0  0  0  0  0  0  0  0  0  0  0  0
  -14.2813  -21.6639    7.6970 C   0  0  0  0  0  0  0  0  0  0  0  0
  -15.1537  -22.6188    8.5131 C   0  0  0  0  0  0  0  0  0  0  0  0
  1  2  1  0
  2  3  2  0
  2  7  1  0
  3  4  1  0
  4  5  2  0
  4 20  1  0
  5  6  1  0
  6  7  2  0
  6 10  1  0
  7  8  1  0
  8  9  2  0
  9 10  1  0
 10 11  1  0
 11 12  1  0
 11 18  1  0
 12 13  1  0
 13 14  1  0
 13 16  1  0
 14 15  1  0
 16 17  1  0
 16 18  1  0
 18 19  1  0
 20 21  1  0
 21 22  2  0
 21 23  1  0
 23 24  2  0
 23 27  1  0
 24 25  1  0
 25 26  1  0
 25 29  1  0
 26 27  2  0
 26 28  1  0
 29 30  1  0
M  END
>  <Gold.Gold.Protein.RotatedWaterAtoms>  (666) 


>  <Gold.Id.Protein>  (666) 


>  <Gold.PLP.Chemscore.CHOScore>  (666) 
1.0000

>  <Gold.PLP.Chemscore.Hbond>  (666) 
1.0000

>  <Gold.PLP.Chemscore.Internal.Correction>  (666) 
0.4891

>  <Gold.PLP.Chemscore.Metal>  (666) 
0.0000

>  <Gold.PLP.Fitness>  (666) 
57.0276

>  <Gold.PLP.PLP>  (666) 
-51.4717

>  <Gold.PLP.ligand.clash>  (666) 
0.0000

>  <Gold.PLP.ligand.torsion>  (666) 
0.4666

>  <Gold.PLP.part.buried>  (666) 
-9.3021

>  <Gold.PLP.part.hbond>  (666) 
-4.2813

>  <Gold.PLP.part.metal>  (666) 
0.0000

>  <Gold.PLP.part.nonpolar>  (666) 
-38.4457

>  <Gold.PLP.part.repulsive>  (666) 
0.3082

>  <Gold.Protein.RotatedAtoms>  (666) 


>  <Gold.Protein.RotatedTorsions>  (666) 


>  <Gold.Protein.RotatedWaterAtoms>  (666) 


>  <Gold.Version>  (666) 
5.3.0

>  <PLP.Chemscore.CHOScore>  (666) 


>  <PLP.Chemscore.Hbond>  (666) 


>  <PLP.Chemscore.Internal.Correction>  (666) 


>  <PLP.Chemscore.Metal>  (666) 


>  <PLP.Fitness>  (666) 


>  <PLP.PLP>  (666) 


>  <PLP.ligand.clash>  (666) 


>  <PLP.ligand.torsion>  (666) 


>  <PLP.part.buried>  (666) 


>  <PLP.part.hbond>  (666) 


>  <PLP.part.metal>  (666) 


>  <PLP.part.nonpolar>  (666) 


>  <PLP.part.repulsive>  (666) 


>  <Version>  (666) 


$$$$
3666|Compound_2222|Compounds_3D_F|sdf|659|dock4|1
     RDKit          3D

 30 33  0  0  0  0  0  0  0  0999 V2000
   -6.3546  -21.6407    8.8734 O   0  0  0  0  0  0  0  0  0  0  0  0
   -5.7633  -20.5924    9.4955 C   0  0  0  0  0  0  0  0  0  0  0  0
   -4.4415  -20.4916    9.5420 N   0  0  0  0  0  0  0  0  0  0  0  0
   -3.8524  -19.4688   10.1478 C   0  0  0  0  0  0  0  0  0  0  0  0
   -4.5407  -18.5035   10.7346 N   0  0  0  0  0  0  0  0  0  0  0  0
   -5.8690  -18.5271   10.7353 C   0  0  0  0  0  0  0  0  0  0  0  0
   -6.5354  -19.5884   10.1001 C   0  0  0  0  0  0  0  0  0  0  0  0
   -7.8652  -19.3708   10.2476 N   0  0  0  0  0  0  0  0  0  0  0  0
   -8.0520  -18.2696   10.9162 C   0  0  0  0  0  0  0  0  0  0  0  0
   -6.8505  -17.7097   11.2365 N   0  0  0  0  0  0  0  0  0  0  0  0
   -6.6449  -16.4675   11.9861 C   0  0  0  0  0  0  0  0  0  0  0  0
   -7.9027  -15.7852   12.1819 O   0  0  0  0  0  0  0  0  0  0  0  0
   -7.5512  -14.4116   12.4568 C   0  0  0  0  0  0  0  0  0  0  0  0
   -8.7447  -13.4925   12.1854 C   0  0  0  0  0  0  0  0  0  0  0  0
   -9.9146  -14.0373   12.7981 O   0  0  0  0  0  0  0  0  0  0  0  0
   -6.3945  -14.0973   11.4833 C   0  0  0  0  0  0  0  0  0  0  0  0
   -5.4270  -13.2527   12.1102 O   0  0  0  0  0  0  0  0  0  0  0  0
   -5.7819  -15.4826   11.1678 C   0  0  0  0  0  0  0  0  0  0  0  0
   -4.4180  -15.5352   11.5902 O   0  0  0  0  0  0  0  0  0  0  0  0
   -2.4648  -19.4097   10.1669 N   0  0  0  0  0  0  0  0  0  0  0  0
   -1.8403  -18.2151   10.1665 C   0  0  0  0  0  0  0  0  0  0  0  0
   -2.4924  -17.1894   10.1519 O   0  0  0  0  0  0  0  0  0  0  0  0
   -0.3654  -18.1524   10.1869 C   0  0  0  0  0  0  0  0  0  0  0  0
    0.3827  -17.1504    9.7699 N   0  0  0  0  0  0  0  0  0  0  0  0
    1.6262  -17.4304    9.9349 N   0  0  0  0  0  0  0  0  0  0  0  0
    1.7600  -18.6579   10.4815 C   0  0  0  0  0  0  0  0  0  0  0  0
    0.5136  -19.1536   10.6640 C   0  0  0  0  0  0  0  0  0  0  0  0
    3.0553  -19.3456   10.8275 C   0  0  0  0  0  0  0  0  0  0  0  0
    2.7383  -16.5444    9.5819 C   0  0  0  0  0  0  0  0  0  0  0  0
    2.6145  -16.1289    8.1153 C   0  0  0  0  0  0  0  0  0  0  0  0
  1  2  1  0
  2  3  2  0
  2  7  1  0
  3  4  1  0
  4  5  2  0
  4 20  1  0
  5  6  1  0
  6  7  2  0
  6 10  1  0
  7  8  1  0
  8  9  2  0
  9 10  1  0
 10 11  1  0
 11 12  1  0
 11 18  1  0
 12 13  1  0
 13 14  1  0
 13 16  1  0
 14 15  1  0
 16 17  1  0
 16 18  1  0
 18 19  1  0
 20 21  1  0
 21 22  2  0
 21 23  1  0
 23 24  2  0
 23 27  1  0
 24 25  1  0
 25 26  1  0
 25 29  1  0
 26 27  2  0
 26 28  1  0
 29 30  1  0
M  END
>  <Gold.Gold.Protein.RotatedWaterAtoms>  (667) 


>  <Gold.Id.Protein>  (667) 


>  <Gold.PLP.Chemscore.CHOScore>  (667) 
0.0000

>  <Gold.PLP.Chemscore.Hbond>  (667) 
3.8564

>  <Gold.PLP.Chemscore.Internal.Correction>  (667) 
0.4891

>  <Gold.PLP.Chemscore.Metal>  (667) 
0.0000

>  <Gold.PLP.Fitness>  (667) 
60.7599

>  <Gold.PLP.PLP>  (667) 
-50.0442

>  <Gold.PLP.ligand.clash>  (667) 
0.0000

>  <Gold.PLP.ligand.torsion>  (667) 
0.6713

>  <Gold.PLP.part.buried>  (667) 
-9.2038

>  <Gold.PLP.part.hbond>  (667) 
-6.1373

>  <Gold.PLP.part.metal>  (667) 
0.0000

>  <Gold.PLP.part.nonpolar>  (667) 
-35.7766

>  <Gold.PLP.part.repulsive>  (667) 
0.2709

>  <Gold.Protein.RotatedAtoms>  (667) 


>  <Gold.Protein.RotatedTorsions>  (667) 


>  <Gold.Protein.RotatedWaterAtoms>  (667) 


>  <Gold.Version>  (667) 
5.3.0

>  <PLP.Chemscore.CHOScore>  (667) 


>  <PLP.Chemscore.Hbond>  (667) 


>  <PLP.Chemscore.Internal.Correction>  (667) 


>  <PLP.Chemscore.Metal>  (667) 


>  <PLP.Fitness>  (667) 


>  <PLP.PLP>  (667) 


>  <PLP.ligand.clash>  (667) 


>  <PLP.ligand.torsion>  (667) 


>  <PLP.part.buried>  (667) 


>  <PLP.part.hbond>  (667) 


>  <PLP.part.metal>  (667) 


>  <PLP.part.nonpolar>  (667) 


>  <PLP.part.repulsive>  (667) 


>  <Version>  (667) 


$$$$
3667|Compound_2222|Compounds_3D_F|sdf|659|dock5|1
     RDKit          3D

 30 33  0  0  0  0  0  0  0  0999 V2000
   -8.2342  -18.7369    7.2937 O   0  0  0  0  0  0  0  0  0  0  0  0
   -8.2912  -18.2676    8.5634 C   0  0  0  0  0  0  0  0  0  0  0  0
   -8.9672  -18.9237    9.4972 N   0  0  0  0  0  0  0  0  0  0  0  0
   -9.0287  -18.4733   10.7436 C   0  0  0  0  0  0  0  0  0  0  0  0
   -8.4284  -17.3570   11.1218 N   0  0  0  0  0  0  0  0  0  0  0  0
   -7.7306  -16.6377   10.2495 C   0  0  0  0  0  0  0  0  0  0  0  0
   -7.6333  -17.0801    8.9196 C   0  0  0  0  0  0  0  0  0  0  0  0
   -6.8771  -16.1750    8.2516 N   0  0  0  0  0  0  0  0  0  0  0  0
   -6.5127  -15.2288    9.0680 C   0  0  0  0  0  0  0  0  0  0  0  0
   -7.0110  -15.4712   10.3140 N   0  0  0  0  0  0  0  0  0  0  0  0
   -6.8205  -14.6349   11.5020 C   0  0  0  0  0  0  0  0  0  0  0  0
   -7.5583  -13.4003   11.3705 O   0  0  0  0  0  0  0  0  0  0  0  0
   -6.9338  -12.4838   12.2957 C   0  0  0  0  0  0  0  0  0  0  0  0
   -7.2585  -11.0378   11.9131 C   0  0  0  0  0  0  0  0  0  0  0  0
   -6.3426  -10.1557   12.5642 O   0  0  0  0  0  0  0  0  0  0  0  0
   -5.4196  -12.7528   12.1568 C   0  0  0  0  0  0  0  0  0  0  0  0
   -4.7736  -12.6508   13.4275 O   0  0  0  0  0  0  0  0  0  0  0  0
   -5.3429  -14.2034   11.6241 C   0  0  0  0  0  0  0  0  0  0  0  0
   -4.6473  -15.0407   12.5497 O   0  0  0  0  0  0  0  0  0  0  0  0
   -9.7487  -19.1992   11.6839 N   0  0  0  0  0  0  0  0  0  0  0  0
   -9.8216  -20.5418   11.5883 C   0  0  0  0  0  0  0  0  0  0  0  0
   -9.2548  -21.1172   10.6800 O   0  0  0  0  0  0  0  0  0  0  0  0
  -10.5868  -21.3132   12.5879 C   0  0  0  0  0  0  0  0  0  0  0  0
  -11.2260  -20.8260   13.6326 N   0  0  0  0  0  0  0  0  0  0  0  0
  -11.7859  -21.7780   14.2901 N   0  0  0  0  0  0  0  0  0  0  0  0
  -11.5372  -22.9649   13.6961 C   0  0  0  0  0  0  0  0  0  0  0  0
  -10.7792  -22.7151   12.6028 C   0  0  0  0  0  0  0  0  0  0  0  0
  -12.0176  -24.3150   14.1616 C   0  0  0  0  0  0  0  0  0  0  0  0
  -12.5806  -21.6004   15.5079 C   0  0  0  0  0  0  0  0  0  0  0  0
  -13.8966  -20.9024   15.1617 C   0  0  0  0  0  0  0  0  0  0  0  0
  1  2  1  0
  2  3  2  0
  2  7  1  0
  3  4  1  0
  4  5  2  0
  4 20  1  0
  5  6  1  0
  6  7  2  0
  6 10  1  0
  7  8  1  0
  8  9  2  0
  9 10  1  0
 10 11  1  0
 11 12  1  0
 11 18  1  0
 12 13  1  0
 13 14  1  0
 13 16  1  0
 14 15  1  0
 16 17  1  0
 16 18  1  0
 18 19  1  0
 20 21  1  0
 21 22  2  0
 21 23  1  0
 23 24  2  0
 23 27  1  0
 24 25  1  0
 25 26  1  0
 25 29  1  0
 26 27  2  0
 26 28  1  0
 29 30  1  0
M  END
>  <Gold.Gold.Protein.RotatedWaterAtoms>  (668) 


>  <Gold.Id.Protein>  (668) 


>  <Gold.PLP.Chemscore.CHOScore>  (668) 
0.0687

>  <Gold.PLP.Chemscore.Hbond>  (668) 
2.9913

>  <Gold.PLP.Chemscore.Internal.Correction>  (668) 
0.4891

>  <Gold.PLP.Chemscore.Metal>  (668) 
0.0000

>  <Gold.PLP.Fitness>  (668) 
58.6826

>  <Gold.PLP.PLP>  (668) 
-50.4035

>  <Gold.PLP.ligand.clash>  (668) 
0.0000

>  <Gold.PLP.ligand.torsion>  (668) 
0.6949

>  <Gold.PLP.part.buried>  (668) 
-6.1997

>  <Gold.PLP.part.hbond>  (668) 
-6.1903

>  <Gold.PLP.part.metal>  (668) 
0.0000

>  <Gold.PLP.part.nonpolar>  (668) 
-38.7128

>  <Gold.PLP.part.repulsive>  (668) 
0.3151

>  <Gold.Protein.RotatedAtoms>  (668) 


>  <Gold.Protein.RotatedTorsions>  (668) 


>  <Gold.Protein.RotatedWaterAtoms>  (668) 


>  <Gold.Version>  (668) 
5.3.0

>  <PLP.Chemscore.CHOScore>  (668) 


>  <PLP.Chemscore.Hbond>  (668) 


>  <PLP.Chemscore.Internal.Correction>  (668) 


>  <PLP.Chemscore.Metal>  (668) 


>  <PLP.Fitness>  (668) 


>  <PLP.PLP>  (668) 


>  <PLP.ligand.clash>  (668) 


>  <PLP.ligand.torsion>  (668) 


>  <PLP.part.buried>  (668) 


>  <PLP.part.hbond>  (668) 


>  <PLP.part.metal>  (668) 


>  <PLP.part.nonpolar>  (668) 


>  <PLP.part.repulsive>  (668) 


>  <Version>  (668) 


$$$$
3668|Compound_2222|Compounds_3D_F|sdf|659|dock6|1
     RDKit          3D

 30 33  0  0  0  0  0  0  0  0999 V2000
   -8.2608  -18.4325    7.3957 O   0  0  0  0  0  0  0  0  0  0  0  0
   -8.3645  -17.9327    8.6507 C   0  0  0  0  0  0  0  0  0  0  0  0
   -9.1082  -18.5443    9.5629 N   0  0  0  0  0  0  0  0  0  0  0  0
   -9.2159  -18.0638   10.7949 C   0  0  0  0  0  0  0  0  0  0  0  0
   -8.5969  -16.9597   11.1792 N   0  0  0  0  0  0  0  0  0  0  0  0
   -7.8323  -16.2844   10.3281 C   0  0  0  0  0  0  0  0  0  0  0  0
   -7.6845  -16.7601    9.0144 C   0  0  0  0  0  0  0  0  0  0  0  0
   -6.8652  -15.8962    8.3664 N   0  0  0  0  0  0  0  0  0  0  0  0
   -6.5093  -14.9443    9.1799 C   0  0  0  0  0  0  0  0  0  0  0  0
   -7.0769  -15.1413   10.4041 N   0  0  0  0  0  0  0  0  0  0  0  0
   -6.9168  -14.2849   11.5822 C   0  0  0  0  0  0  0  0  0  0  0  0
   -7.6130  -13.0340   11.3919 O   0  0  0  0  0  0  0  0  0  0  0  0
   -7.0054  -12.1149   12.3258 C   0  0  0  0  0  0  0  0  0  0  0  0
   -7.2718  -10.6693   11.8992 C   0  0  0  0  0  0  0  0  0  0  0  0
   -8.3896  -10.6331   11.0104 O   0  0  0  0  0  0  0  0  0  0  0  0
   -5.4946  -12.4278   12.2617 C   0  0  0  0  0  0  0  0  0  0  0  0
   -4.9040  -12.3159   13.5583 O   0  0  0  0  0  0  0  0  0  0  0  0
   -5.4347  -13.8912   11.7629 C   0  0  0  0  0  0  0  0  0  0  0  0
   -4.8054  -14.7267   12.7362 O   0  0  0  0  0  0  0  0  0  0  0  0
  -10.0064  -18.7434   11.7129 N   0  0  0  0  0  0  0  0  0  0  0  0
  -11.0897  -19.4277   11.2942 C   0  0  0  0  0  0  0  0  0  0  0  0
  -11.3731  -19.4516   10.1124 O   0  0  0  0  0  0  0  0  0  0  0  0
  -11.9297  -20.1502   12.2700 C   0  0  0  0  0  0  0  0  0  0  0  0
  -11.6288  -20.4032   13.5281 N   0  0  0  0  0  0  0  0  0  0  0  0
  -12.5872  -21.0503   14.0890 N   0  0  0  0  0  0  0  0  0  0  0  0
  -13.5886  -21.2588   13.2074 C   0  0  0  0  0  0  0  0  0  0  0  0
  -13.2137  -20.6965   12.0345 C   0  0  0  0  0  0  0  0  0  0  0  0
  -14.8835  -21.9793   13.4801 C   0  0  0  0  0  0  0  0  0  0  0  0
  -12.5927  -21.4962   15.4845 C   0  0  0  0  0  0  0  0  0  0  0  0
  -11.2097  -21.2724   16.0977 C   0  0  0  0  0  0  0  0  0  0  0  0
  1  2  1  0
  2  3  2  0
  2  7  1  0
  3  4  1  0
  4  5  2  0
  4 20  1  0
  5  6  1  0
  6  7  2  0
  6 10  1  0
  7  8  1  0
  8  9  2  0
  9 10  1  0
 10 11  1  0
 11 12  1  0
 11 18  1  0
 12 13  1  0
 13 14  1  0
 13 16  1  0
 14 15  1  0
 16 17  1  0
 16 18  1  0
 18 19  1  0
 20 21  1  0
 21 22  2  0
 21 23  1  0
 23 24  2  0
 23 27  1  0
 24 25  1  0
 25 26  1  0
 25 29  1  0
 26 27  2  0
 26 28  1  0
 29 30  1  0
M  END
>  <Gold.Gold.Protein.RotatedWaterAtoms>  (669) 


>  <Gold.Id.Protein>  (669) 


>  <Gold.PLP.Chemscore.CHOScore>  (669) 
0.3002

>  <Gold.PLP.Chemscore.Hbond>  (669) 
2.9052

>  <Gold.PLP.Chemscore.Internal.Correction>  (669) 
0.4891

>  <Gold.PLP.Chemscore.Metal>  (669) 
0.0000

>  <Gold.PLP.Fitness>  (669) 
58.5771

>  <Gold.PLP.PLP>  (669) 
-50.9878

>  <Gold.PLP.ligand.clash>  (669) 
0.0000

>  <Gold.PLP.ligand.torsion>  (669) 
1.2579

>  <Gold.PLP.part.buried>  (669) 
-1.4034

>  <Gold.PLP.part.hbond>  (669) 
-8.0613

>  <Gold.PLP.part.metal>  (669) 
0.0000

>  <Gold.PLP.part.nonpolar>  (669) 
-42.8030

>  <Gold.PLP.part.repulsive>  (669) 
0.3801

>  <Gold.Protein.RotatedAtoms>  (669) 


>  <Gold.Protein.RotatedTorsions>  (669) 


>  <Gold.Protein.RotatedWaterAtoms>  (669) 


>  <Gold.Version>  (669) 
5.3.0

>  <PLP.Chemscore.CHOScore>  (669) 


>  <PLP.Chemscore.Hbond>  (669) 


>  <PLP.Chemscore.Internal.Correction>  (669) 


>  <PLP.Chemscore.Metal>  (669) 


>  <PLP.Fitness>  (669) 


>  <PLP.PLP>  (669) 


>  <PLP.ligand.clash>  (669) 


>  <PLP.ligand.torsion>  (669) 


>  <PLP.part.buried>  (669) 


>  <PLP.part.hbond>  (669) 


>  <PLP.part.metal>  (669) 


>  <PLP.part.nonpolar>  (669) 


>  <PLP.part.repulsive>  (669) 


>  <Version>  (669) 


$$$$
3669|Compound_2222|Compounds_3D_F|sdf|659|dock7|1
     RDKit          3D

 30 33  0  0  0  0  0  0  0  0999 V2000
   -8.9345  -20.3235    7.5265 O   0  0  0  0  0  0  0  0  0  0  0  0
   -9.1741  -19.8103    8.7572 C   0  0  0  0  0  0  0  0  0  0  0  0
   -8.5659  -18.7017    9.1578 N   0  0  0  0  0  0  0  0  0  0  0  0
   -8.7940  -18.1904   10.3606 C   0  0  0  0  0  0  0  0  0  0  0  0
   -9.6294  -18.7506   11.2197 N   0  0  0  0  0  0  0  0  0  0  0  0
  -10.2799  -19.8639   10.8992 C   0  0  0  0  0  0  0  0  0  0  0  0
  -10.0736  -20.4373    9.6333 C   0  0  0  0  0  0  0  0  0  0  0  0
  -10.8470  -21.5485    9.5672 N   0  0  0  0  0  0  0  0  0  0  0  0
  -11.4991  -21.6892   10.6850 C   0  0  0  0  0  0  0  0  0  0  0  0
  -11.1862  -20.6723   11.5379 N   0  0  0  0  0  0  0  0  0  0  0  0
  -11.7142  -20.4822   12.8915 C   0  0  0  0  0  0  0  0  0  0  0  0
  -11.2371  -21.5264   13.7677 O   0  0  0  0  0  0  0  0  0  0  0  0
  -12.1640  -21.5464   14.8751 C   0  0  0  0  0  0  0  0  0  0  0  0
  -12.0945  -22.8911   15.6030 C   0  0  0  0  0  0  0  0  0  0  0  0
  -12.5204  -23.9321   14.7221 O   0  0  0  0  0  0  0  0  0  0  0  0
  -13.5537  -21.3516   14.2308 C   0  0  0  0  0  0  0  0  0  0  0  0
  -14.3822  -20.5364   15.0623 O   0  0  0  0  0  0  0  0  0  0  0  0
  -13.2510  -20.6322   12.8948 C   0  0  0  0  0  0  0  0  0  0  0  0
  -13.8834  -19.3514   12.8612 O   0  0  0  0  0  0  0  0  0  0  0  0
   -8.1323  -17.0265   10.7308 N   0  0  0  0  0  0  0  0  0  0  0  0
   -8.7484  -16.1211   11.5169 C   0  0  0  0  0  0  0  0  0  0  0  0
   -9.8826  -16.3250   11.9035 O   0  0  0  0  0  0  0  0  0  0  0  0
   -8.0451  -14.8841   11.9103 C   0  0  0  0  0  0  0  0  0  0  0  0
   -8.5902  -13.6996   12.1033 N   0  0  0  0  0  0  0  0  0  0  0  0
   -7.6876  -12.8483   12.4384 N   0  0  0  0  0  0  0  0  0  0  0  0
   -6.4770  -13.4448   12.4838 C   0  0  0  0  0  0  0  0  0  0  0  0
   -6.6587  -14.7461   12.1585 C   0  0  0  0  0  0  0  0  0  0  0  0
   -5.1686  -12.7853   12.8352 C   0  0  0  0  0  0  0  0  0  0  0  0
   -7.9368  -11.4344   12.7303 C   0  0  0  0  0  0  0  0  0  0  0  0
   -6.9903  -10.5668   11.8995 C   0  0  0  0  0  0  0  0  0  0  0  0
  1  2  1  0
  2  3  2  0
  2  7  1  0
  3  4  1  0
  4  5  2  0
  4 20  1  0
  5  6  1  0
  6  7  2  0
  6 10  1  0
  7  8  1  0
  8  9  2  0
  9 10  1  0
 10 11  1  0
 11 12  1  0
 11 18  1  0
 12 13  1  0
 13 14  1  0
 13 16  1  0
 14 15  1  0
 16 17  1  0
 16 18  1  0
 18 19  1  0
 20 21  1  0
 21 22  2  0
 21 23  1  0
 23 24  2  0
 23 27  1  0
 24 25  1  0
 25 26  1  0
 25 29  1  0
 26 27  2  0
 26 28  1  0
 29 30  1  0
M  END
>  <Gold.Gold.Protein.RotatedWaterAtoms>  (670) 


>  <Gold.Id.Protein>  (670) 


>  <Gold.PLP.Chemscore.CHOScore>  (670) 
0.0000

>  <Gold.PLP.Chemscore.Hbond>  (670) 
3.3429

>  <Gold.PLP.Chemscore.Internal.Correction>  (670) 
0.4791

>  <Gold.PLP.Chemscore.Metal>  (670) 
0.0000

>  <Gold.PLP.Fitness>  (670) 
61.8033

>  <Gold.PLP.PLP>  (670) 
-53.2604

>  <Gold.PLP.ligand.clash>  (670) 
0.0000

>  <Gold.PLP.ligand.torsion>  (670) 
0.9824

>  <Gold.PLP.part.buried>  (670) 
-8.9531

>  <Gold.PLP.part.hbond>  (670) 
-4.9896

>  <Gold.PLP.part.metal>  (670) 
0.0000

>  <Gold.PLP.part.nonpolar>  (670) 
-38.7840

>  <Gold.PLP.part.repulsive>  (670) 
0.1824

>  <Gold.Protein.RotatedAtoms>  (670) 


>  <Gold.Protein.RotatedTorsions>  (670) 


>  <Gold.Protein.RotatedWaterAtoms>  (670) 


>  <Gold.Version>  (670) 
5.3.0

>  <PLP.Chemscore.CHOScore>  (670) 


>  <PLP.Chemscore.Hbond>  (670) 


>  <PLP.Chemscore.Internal.Correction>  (670) 


>  <PLP.Chemscore.Metal>  (670) 


>  <PLP.Fitness>  (670) 


>  <PLP.PLP>  (670) 


>  <PLP.ligand.clash>  (670) 


>  <PLP.ligand.torsion>  (670) 


>  <PLP.part.buried>  (670) 


>  <PLP.part.hbond>  (670) 


>  <PLP.part.metal>  (670) 


>  <PLP.part.nonpolar>  (670) 


>  <PLP.part.repulsive>  (670) 


>  <Version>  (670) 


$$$$
3670|Compound_2222|Compounds_3D_F|sdf|659|dock8|1
     RDKit          3D

 30 33  0  0  0  0  0  0  0  0999 V2000
  -10.9514  -20.7884   11.5422 O   0  0  0  0  0  0  0  0  0  0  0  0
  -10.0615  -19.9473   10.9623 C   0  0  0  0  0  0  0  0  0  0  0  0
   -9.2902  -20.3611    9.9657 N   0  0  0  0  0  0  0  0  0  0  0  0
   -8.4162  -19.5454    9.3904 C   0  0  0  0  0  0  0  0  0  0  0  0
   -8.2643  -18.2886    9.7739 N   0  0  0  0  0  0  0  0  0  0  0  0
   -8.9966  -17.7931   10.7655 C   0  0  0  0  0  0  0  0  0  0  0  0
   -9.9393  -18.6194   11.3998 C   0  0  0  0  0  0  0  0  0  0  0  0
  -10.5395  -17.8760   12.3614 N   0  0  0  0  0  0  0  0  0  0  0  0
  -10.0372  -16.6751   12.3566 C   0  0  0  0  0  0  0  0  0  0  0  0
   -9.0839  -16.5728   11.3869 N   0  0  0  0  0  0  0  0  0  0  0  0
   -8.2918  -15.3810   11.0718 C   0  0  0  0  0  0  0  0  0  0  0  0
   -6.9355  -15.5410   11.5412 O   0  0  0  0  0  0  0  0  0  0  0  0
   -6.4071  -14.2006   11.6411 C   0  0  0  0  0  0  0  0  0  0  0  0
   -5.1994  -14.1733   12.5810 C   0  0  0  0  0  0  0  0  0  0  0  0
   -4.6377  -12.8599   12.5969 O   0  0  0  0  0  0  0  0  0  0  0  0
   -7.5651  -13.3619   12.2244 C   0  0  0  0  0  0  0  0  0  0  0  0
   -7.5889  -12.0608   11.6338 O   0  0  0  0  0  0  0  0  0  0  0  0
   -8.8357  -14.1560   11.8387 C   0  0  0  0  0  0  0  0  0  0  0  0
   -9.6822  -13.3694   10.9985 O   0  0  0  0  0  0  0  0  0  0  0  0
   -7.6332  -20.0281    8.3495 N   0  0  0  0  0  0  0  0  0  0  0  0
   -7.5062  -19.3136    7.2135 C   0  0  0  0  0  0  0  0  0  0  0  0
   -8.0754  -18.2454    7.1015 O   0  0  0  0  0  0  0  0  0  0  0  0
   -6.6739  -19.8266    6.1073 C   0  0  0  0  0  0  0  0  0  0  0  0
   -6.3932  -19.2007    4.9817 N   0  0  0  0  0  0  0  0  0  0  0  0
   -5.6420  -19.9372    4.2433 N   0  0  0  0  0  0  0  0  0  0  0  0
   -5.3854  -21.1100    4.8614 C   0  0  0  0  0  0  0  0  0  0  0  0
   -6.0203  -21.0808    6.0566 C   0  0  0  0  0  0  0  0  0  0  0  0
   -4.5454  -22.2389    4.3226 C   0  0  0  0  0  0  0  0  0  0  0  0
   -5.1359  -19.5579    2.9219 C   0  0  0  0  0  0  0  0  0  0  0  0
   -4.2581  -18.3120    3.0494 C   0  0  0  0  0  0  0  0  0  0  0  0
  1  2  1  0
  2  3  2  0
  2  7  1  0
  3  4  1  0
  4  5  2  0
  4 20  1  0
  5  6  1  0
  6  7  2  0
  6 10  1  0
  7  8  1  0
  8  9  2  0
  9 10  1  0
 10 11  1  0
 11 12  1  0
 11 18  1  0
 12 13  1  0
 13 14  1  0
 13 16  1  0
 14 15  1  0
 16 17  1  0
 16 18  1  0
 18 19  1  0
 20 21  1  0
 21 22  2  0
 21 23  1  0
 23 24  2  0
 23 27  1  0
 24 25  1  0
 25 26  1  0
 25 29  1  0
 26 27  2  0
 26 28  1  0
 29 30  1  0
M  END
>  <Gold.Gold.Protein.RotatedWaterAtoms>  (671) 


>  <Gold.Id.Protein>  (671) 


>  <Gold.PLP.Chemscore.CHOScore>  (671) 
0.6832

>  <Gold.PLP.Chemscore.Hbond>  (671) 
3.9600

>  <Gold.PLP.Chemscore.Internal.Correction>  (671) 
0.4695

>  <Gold.PLP.Chemscore.Metal>  (671) 
0.0000

>  <Gold.PLP.Fitness>  (671) 
51.1478

>  <Gold.PLP.PLP>  (671) 
-38.1063

>  <Gold.PLP.ligand.clash>  (671) 
0.0000

>  <Gold.PLP.ligand.torsion>  (671) 
0.6788

>  <Gold.PLP.part.buried>  (671) 
-2.7848

>  <Gold.PLP.part.hbond>  (671) 
-5.1235

>  <Gold.PLP.part.metal>  (671) 
0.0000

>  <Gold.PLP.part.nonpolar>  (671) 
-31.1719

>  <Gold.PLP.part.repulsive>  (671) 
0.2706

>  <Gold.Protein.RotatedAtoms>  (671) 


>  <Gold.Protein.RotatedTorsions>  (671) 


>  <Gold.Protein.RotatedWaterAtoms>  (671) 


>  <Gold.Version>  (671) 
5.3.0

>  <PLP.Chemscore.CHOScore>  (671) 


>  <PLP.Chemscore.Hbond>  (671) 


>  <PLP.Chemscore.Internal.Correction>  (671) 


>  <PLP.Chemscore.Metal>  (671) 


>  <PLP.Fitness>  (671) 


>  <PLP.PLP>  (671) 


>  <PLP.ligand.clash>  (671) 


>  <PLP.ligand.torsion>  (671) 


>  <PLP.part.buried>  (671) 


>  <PLP.part.hbond>  (671) 


>  <PLP.part.metal>  (671) 


>  <PLP.part.nonpolar>  (671) 


>  <PLP.part.repulsive>  (671) 


>  <Version>  (671) 


$$$$
3671|Compound_2222|Compounds_3D_F|sdf|659|dock9|1
     RDKit          3D

 30 33  0  0  0  0  0  0  0  0999 V2000
   -4.8645  -20.6017    9.7807 O   0  0  0  0  0  0  0  0  0  0  0  0
   -5.8756  -19.7026    9.8495 C   0  0  0  0  0  0  0  0  0  0  0  0
   -7.1207  -20.0621    9.5668 N   0  0  0  0  0  0  0  0  0  0  0  0
   -8.1182  -19.1897    9.6318 C   0  0  0  0  0  0  0  0  0  0  0  0
   -7.9306  -17.9265    9.9765 N   0  0  0  0  0  0  0  0  0  0  0  0
   -6.7146  -17.4825   10.2751 C   0  0  0  0  0  0  0  0  0  0  0  0
   -5.6290  -18.3731   10.2255 C   0  0  0  0  0  0  0  0  0  0  0  0
   -4.5211  -17.6722   10.5698 N   0  0  0  0  0  0  0  0  0  0  0  0
   -4.8505  -16.4383   10.8221 C   0  0  0  0  0  0  0  0  0  0  0  0
   -6.1940  -16.2720   10.6581 N   0  0  0  0  0  0  0  0  0  0  0  0
   -6.9433  -15.0272   10.8475 C   0  0  0  0  0  0  0  0  0  0  0  0
   -6.0384  -13.9294   11.0962 O   0  0  0  0  0  0  0  0  0  0  0  0
   -6.8392  -12.9155   11.7416 C   0  0  0  0  0  0  0  0  0  0  0  0
   -5.9439  -11.9360   12.5045 C   0  0  0  0  0  0  0  0  0  0  0  0
   -4.9092  -12.6587   13.1738 O   0  0  0  0  0  0  0  0  0  0  0  0
   -7.7470  -13.6922   12.7198 C   0  0  0  0  0  0  0  0  0  0  0  0
   -9.0481  -13.1033   12.7715 O   0  0  0  0  0  0  0  0  0  0  0  0
   -7.8194  -15.1150   12.1161 C   0  0  0  0  0  0  0  0  0  0  0  0
   -9.1670  -15.4473   11.7770 O   0  0  0  0  0  0  0  0  0  0  0  0
   -9.4040  -19.6178    9.3271 N   0  0  0  0  0  0  0  0  0  0  0  0
  -10.4512  -19.1785   10.0536 C   0  0  0  0  0  0  0  0  0  0  0  0
  -10.2697  -18.4057   10.9741 O   0  0  0  0  0  0  0  0  0  0  0  0
  -11.8178  -19.6334    9.7296 C   0  0  0  0  0  0  0  0  0  0  0  0
  -12.1609  -20.4554    8.7580 N   0  0  0  0  0  0  0  0  0  0  0  0
  -13.4333  -20.6367    8.7628 N   0  0  0  0  0  0  0  0  0  0  0  0
  -14.0023  -19.9272    9.7609 C   0  0  0  0  0  0  0  0  0  0  0  0
  -13.0075  -19.2753   10.4072 C   0  0  0  0  0  0  0  0  0  0  0  0
  -15.4706  -19.8745   10.0952 C   0  0  0  0  0  0  0  0  0  0  0  0
  -14.1612  -21.4914    7.8215 C   0  0  0  0  0  0  0  0  0  0  0  0
  -13.6000  -22.9128    7.8833 C   0  0  0  0  0  0  0  0  0  0  0  0
  1  2  1  0
  2  3  2  0
  2  7  1  0
  3  4  1  0
  4  5  2  0
  4 20  1  0
  5  6  1  0
  6  7  2  0
  6 10  1  0
  7  8  1  0
  8  9  2  0
  9 10  1  0
 10 11  1  0
 11 12  1  0
 11 18  1  0
 12 13  1  0
 13 14  1  0
 13 16  1  0
 14 15  1  0
 16 17  1  0
 16 18  1  0
 18 19  1  0
 20 21  1  0
 21 22  2  0
 21 23  1  0
 23 24  2  0
 23 27  1  0
 24 25  1  0
 25 26  1  0
 25 29  1  0
 26 27  2  0
 26 28  1  0
 29 30  1  0
M  END
>  <Gold.Gold.Protein.RotatedWaterAtoms>  (672) 


>  <Gold.Id.Protein>  (672) 


>  <Gold.PLP.Chemscore.CHOScore>  (672) 
0.9667

>  <Gold.PLP.Chemscore.Hbond>  (672) 
1.0000

>  <Gold.PLP.Chemscore.Internal.Correction>  (672) 
0.4695

>  <Gold.PLP.Chemscore.Metal>  (672) 
0.0000

>  <Gold.PLP.Fitness>  (672) 
56.7016

>  <Gold.PLP.PLP>  (672) 
-51.5340

>  <Gold.PLP.ligand.clash>  (672) 
0.0000

>  <Gold.PLP.ligand.torsion>  (672) 
0.6010

>  <Gold.PLP.part.buried>  (672) 
-8.2744

>  <Gold.PLP.part.hbond>  (672) 
-4.4784

>  <Gold.PLP.part.metal>  (672) 
0.0000

>  <Gold.PLP.part.nonpolar>  (672) 
-39.2011

>  <Gold.PLP.part.repulsive>  (672) 
0.3176

>  <Gold.Protein.RotatedAtoms>  (672) 


>  <Gold.Protein.RotatedTorsions>  (672) 


>  <Gold.Protein.RotatedWaterAtoms>  (672) 


>  <Gold.Version>  (672) 
5.3.0

>  <PLP.Chemscore.CHOScore>  (672) 


>  <PLP.Chemscore.Hbond>  (672) 


>  <PLP.Chemscore.Internal.Correction>  (672) 


>  <PLP.Chemscore.Metal>  (672) 


>  <PLP.Fitness>  (672) 


>  <PLP.PLP>  (672) 


>  <PLP.ligand.clash>  (672) 


>  <PLP.ligand.torsion>  (672) 


>  <PLP.part.buried>  (672) 


>  <PLP.part.hbond>  (672) 


>  <PLP.part.metal>  (672) 


>  <PLP.part.nonpolar>  (672) 


>  <PLP.part.repulsive>  (672) 


>  <Version>  (672) 


$$$$
3672|Compound_202|Compounds_3D_F|sdf|65|dock10|1
     RDKit          3D

 19 20  0  0  0  0  0  0  0  0999 V2000
   -8.2094  -16.1663   11.6572 N   0  0  0  0  0  0  0  0  0  0  0  0
   -8.4953  -14.8641   11.4579 C   0  0  0  0  0  0  0  0  0  0  0  0
   -9.5659  -14.5435   10.9809 O   0  0  0  0  0  0  0  0  0  0  0  0
   -7.5063  -13.8278   11.8199 C   0  0  0  0  0  0  0  0  0  0  0  0
   -6.2739  -14.1954   12.3657 C   0  0  0  0  0  0  0  0  0  0  0  0
   -5.8990  -15.8714   12.6197 Cl  0  0  0  0  0  0  0  0  0  0  0  0
   -5.3533  -13.2207   12.7011 C   0  0  0  0  0  0  0  0  0  0  0  0
   -5.6506  -11.8861   12.4993 C   0  0  0  0  0  0  0  0  0  0  0  0
   -6.8702  -11.5158   11.9587 C   0  0  0  0  0  0  0  0  0  0  0  0
   -7.7963  -12.4778   11.6137 C   0  0  0  0  0  0  0  0  0  0  0  0
   -9.1393  -17.1445   11.3115 C   0  0  0  0  0  0  0  0  0  0  0  0
  -10.3957  -17.1597   11.6591 N   0  0  0  0  0  0  0  0  0  0  0  0
  -10.9873  -18.3209   11.1018 O   0  0  0  0  0  0  0  0  0  0  0  0
   -9.9802  -19.0106   10.3831 N   0  0  0  0  0  0  0  0  0  0  0  0
   -8.8743  -18.3282   10.4888 C   0  0  0  0  0  0  0  0  0  0  0  0
   -7.6462  -18.6712    9.9223 N   0  0  0  0  0  0  0  0  0  0  0  0
   -7.5833  -19.0580    8.6333 C   0  0  0  0  0  0  0  0  0  0  0  0
   -8.5944  -19.1080    7.9649 O   0  0  0  0  0  0  0  0  0  0  0  0
   -6.2566  -19.4281    8.0213 C   0  0  0  0  0  0  0  0  0  0  0  0
  1  2  1  0
  1 11  1  0
  2  3  2  0
  2  4  1  0
  4  5  2  0
  4 10  1  0
  5  6  1  0
  5  7  1  0
  7  8  2  0
  8  9  1  0
  9 10  2  0
 11 12  2  0
 11 15  1  0
 12 13  1  0
 13 14  1  0
 14 15  2  0
 15 16  1  0
 16 17  1  0
 17 18  2  0
 17 19  1  0
M  END
>  <Gold.Gold.Protein.RotatedWaterAtoms>  (673) 


>  <Gold.Id.Protein>  (673) 


>  <Gold.PLP.Chemscore.CHOScore>  (673) 
0.0000

>  <Gold.PLP.Chemscore.Hbond>  (673) 
1.7200

>  <Gold.PLP.Chemscore.Internal.Correction>  (673) 
0.0002

>  <Gold.PLP.Chemscore.Metal>  (673) 
0.0000

>  <Gold.PLP.Fitness>  (673) 
48.6444

>  <Gold.PLP.PLP>  (673) 
-45.1741

>  <Gold.PLP.ligand.clash>  (673) 
0.0000

>  <Gold.PLP.ligand.torsion>  (673) 
0.8450

>  <Gold.PLP.part.buried>  (673) 
-9.7707

>  <Gold.PLP.part.hbond>  (673) 
-2.6809

>  <Gold.PLP.part.metal>  (673) 
0.0000

>  <Gold.PLP.part.nonpolar>  (673) 
-33.5458

>  <Gold.PLP.part.repulsive>  (673) 
0.2087

>  <Gold.Protein.RotatedAtoms>  (673) 


>  <Gold.Protein.RotatedTorsions>  (673) 


>  <Gold.Protein.RotatedWaterAtoms>  (673) 


>  <Gold.Version>  (673) 
5.3.0

>  <PLP.Chemscore.CHOScore>  (673) 


>  <PLP.Chemscore.Hbond>  (673) 


>  <PLP.Chemscore.Internal.Correction>  (673) 


>  <PLP.Chemscore.Metal>  (673) 


>  <PLP.Fitness>  (673) 


>  <PLP.PLP>  (673) 


>  <PLP.ligand.clash>  (673) 


>  <PLP.ligand.torsion>  (673) 


>  <PLP.part.buried>  (673) 


>  <PLP.part.hbond>  (673) 


>  <PLP.part.metal>  (673) 


>  <PLP.part.nonpolar>  (673) 


>  <PLP.part.repulsive>  (673) 


>  <Version>  (673) 


$$$$
3673|Compound_2223|Compounds_3D_F|sdf|660|dock1|1
     RDKit          3D

 16 17  0  0  0  0  0  0  0  0999 V2000
   -9.6107  -17.6179   11.5323 N   0  0  0  0  0  0  0  0  0  0  0  0
   -9.7436  -16.4501   12.1923 C   0  0  0  0  0  0  0  0  0  0  0  0
  -10.7753  -16.2008   12.7839 O   0  0  0  0  0  0  0  0  0  0  0  0
   -8.6354  -15.4749   12.1961 C   0  0  0  0  0  0  0  0  0  0  0  0
   -7.3459  -15.7512   12.2003 N   0  0  0  0  0  0  0  0  0  0  0  0
   -6.6615  -14.6637   12.2018 N   0  0  0  0  0  0  0  0  0  0  0  0
   -7.4858  -13.5939   12.1985 C   0  0  0  0  0  0  0  0  0  0  0  0
   -8.7541  -14.0641   12.1894 C   0  0  0  0  0  0  0  0  0  0  0  0
   -7.0685  -12.1452   12.1994 C   0  0  0  0  0  0  0  0  0  0  0  0
   -5.1985  -14.5951   12.2065 C   0  0  0  0  0  0  0  0  0  0  0  0
   -4.6207  -16.0120   12.1946 C   0  0  0  0  0  0  0  0  0  0  0  0
  -10.6537  -18.5328   11.5242 C   0  0  0  0  0  0  0  0  0  0  0  0
  -11.7268  -18.5003   12.2811 N   0  0  0  0  0  0  0  0  0  0  0  0
  -12.4932  -19.4970   12.0198 N   0  0  0  0  0  0  0  0  0  0  0  0
  -11.9760  -20.2281   11.0926 N   0  0  0  0  0  0  0  0  0  0  0  0
  -10.7589  -19.6241   10.7317 N   0  0  0  0  0  0  0  0  0  0  0  0
  1  2  1  0
  1 12  1  0
  2  3  2  0
  2  4  1  0
  4  5  2  0
  4  8  1  0
  5  6  1  0
  6  7  1  0
  6 10  1  0
  7  8  2  0
  7  9  1  0
 10 11  1  0
 12 13  2  0
 12 16  1  0
 13 14  1  0
 14 15  2  0
 15 16  1  0
M  END
>  <Gold.Gold.Protein.RotatedWaterAtoms>  (674) 


>  <Gold.Id.Protein>  (674) 


>  <Gold.PLP.Chemscore.CHOScore>  (674) 
0.0000

>  <Gold.PLP.Chemscore.Hbond>  (674) 
2.6626

>  <Gold.PLP.Chemscore.Internal.Correction>  (674) 
0.0016

>  <Gold.PLP.Chemscore.Metal>  (674) 
0.0000

>  <Gold.PLP.Fitness>  (674) 
40.8760

>  <Gold.PLP.PLP>  (674) 
-33.9176

>  <Gold.PLP.ligand.clash>  (674) 
0.0000

>  <Gold.PLP.ligand.torsion>  (674) 
0.5156

>  <Gold.PLP.part.buried>  (674) 
-3.1200

>  <Gold.PLP.part.hbond>  (674) 
-3.4635

>  <Gold.PLP.part.metal>  (674) 
0.0000

>  <Gold.PLP.part.nonpolar>  (674) 
-29.0894

>  <Gold.PLP.part.repulsive>  (674) 
0.3458

>  <Gold.Protein.RotatedAtoms>  (674) 


>  <Gold.Protein.RotatedTorsions>  (674) 


>  <Gold.Protein.RotatedWaterAtoms>  (674) 


>  <Gold.Version>  (674) 
5.3.0

>  <PLP.Chemscore.CHOScore>  (674) 


>  <PLP.Chemscore.Hbond>  (674) 


>  <PLP.Chemscore.Internal.Correction>  (674) 


>  <PLP.Chemscore.Metal>  (674) 


>  <PLP.Fitness>  (674) 


>  <PLP.PLP>  (674) 


>  <PLP.ligand.clash>  (674) 


>  <PLP.ligand.torsion>  (674) 


>  <PLP.part.buried>  (674) 


>  <PLP.part.hbond>  (674) 


>  <PLP.part.metal>  (674) 


>  <PLP.part.nonpolar>  (674) 


>  <PLP.part.repulsive>  (674) 


>  <Version>  (674) 


$$$$
3674|Compound_2223|Compounds_3D_F|sdf|660|dock2|1
     RDKit          3D

 16 17  0  0  0  0  0  0  0  0999 V2000
   -4.0997  -16.1696   10.9776 N   0  0  0  0  0  0  0  0  0  0  0  0
   -5.3160  -16.3411   11.5329 C   0  0  0  0  0  0  0  0  0  0  0  0
   -5.6824  -17.4522   11.8612 O   0  0  0  0  0  0  0  0  0  0  0  0
   -6.2018  -15.1790   11.7418 C   0  0  0  0  0  0  0  0  0  0  0  0
   -5.8302  -13.9192   11.8601 N   0  0  0  0  0  0  0  0  0  0  0  0
   -6.8596  -13.1696   12.0313 N   0  0  0  0  0  0  0  0  0  0  0  0
   -7.9850  -13.9162   12.0341 C   0  0  0  0  0  0  0  0  0  0  0  0
   -7.6135  -15.2035   11.8472 C   0  0  0  0  0  0  0  0  0  0  0  0
   -9.3935  -13.4076   12.2079 C   0  0  0  0  0  0  0  0  0  0  0  0
   -6.8178  -11.7152   12.1992 C   0  0  0  0  0  0  0  0  0  0  0  0
   -5.3624  -11.2425   12.1972 C   0  0  0  0  0  0  0  0  0  0  0  0
   -3.2685  -17.2621   10.7763 C   0  0  0  0  0  0  0  0  0  0  0  0
   -2.0704  -17.2430   10.2381 N   0  0  0  0  0  0  0  0  0  0  0  0
   -1.5740  -18.4267   10.2008 N   0  0  0  0  0  0  0  0  0  0  0  0
   -2.4034  -19.2758   10.7036 N   0  0  0  0  0  0  0  0  0  0  0  0
   -3.5379  -18.5472   11.1017 N   0  0  0  0  0  0  0  0  0  0  0  0
  1  2  1  0
  1 12  1  0
  2  3  2  0
  2  4  1  0
  4  5  2  0
  4  8  1  0
  5  6  1  0
  6  7  1  0
  6 10  1  0
  7  8  2  0
  7  9  1  0
 10 11  1  0
 12 13  2  0
 12 16  1  0
 13 14  1  0
 14 15  2  0
 15 16  1  0
M  END
>  <Gold.Gold.Protein.RotatedWaterAtoms>  (675) 


>  <Gold.Id.Protein>  (675) 


>  <Gold.PLP.Chemscore.CHOScore>  (675) 
0.0000

>  <Gold.PLP.Chemscore.Hbond>  (675) 
2.0000

>  <Gold.PLP.Chemscore.Internal.Correction>  (675) 
0.0016

>  <Gold.PLP.Chemscore.Metal>  (675) 
0.0000

>  <Gold.PLP.Fitness>  (675) 
42.2862

>  <Gold.PLP.PLP>  (675) 
-36.7911

>  <Gold.PLP.ligand.clash>  (675) 
0.0000

>  <Gold.PLP.ligand.torsion>  (675) 
0.2533

>  <Gold.PLP.part.buried>  (675) 
-8.5770

>  <Gold.PLP.part.hbond>  (675) 
-2.0000

>  <Gold.PLP.part.metal>  (675) 
0.0000

>  <Gold.PLP.part.nonpolar>  (675) 
-26.4099

>  <Gold.PLP.part.repulsive>  (675) 
0.4758

>  <Gold.Protein.RotatedAtoms>  (675) 


>  <Gold.Protein.RotatedTorsions>  (675) 


>  <Gold.Protein.RotatedWaterAtoms>  (675) 


>  <Gold.Version>  (675) 
5.3.0

>  <PLP.Chemscore.CHOScore>  (675) 


>  <PLP.Chemscore.Hbond>  (675) 


>  <PLP.Chemscore.Internal.Correction>  (675) 


>  <PLP.Chemscore.Metal>  (675) 


>  <PLP.Fitness>  (675) 


>  <PLP.PLP>  (675) 


>  <PLP.ligand.clash>  (675) 


>  <PLP.ligand.torsion>  (675) 


>  <PLP.part.buried>  (675) 


>  <PLP.part.hbond>  (675) 


>  <PLP.part.metal>  (675) 


>  <PLP.part.nonpolar>  (675) 


>  <PLP.part.repulsive>  (675) 


>  <Version>  (675) 


$$$$
3675|Compound_2223|Compounds_3D_F|sdf|660|dock3|1
     RDKit          3D

 16 17  0  0  0  0  0  0  0  0999 V2000
   -8.8164  -15.6047   11.9922 N   0  0  0  0  0  0  0  0  0  0  0  0
   -9.1456  -14.3442   12.3387 C   0  0  0  0  0  0  0  0  0  0  0  0
  -10.2711  -14.0942   12.7225 O   0  0  0  0  0  0  0  0  0  0  0  0
   -8.1384  -13.2686   12.2518 C   0  0  0  0  0  0  0  0  0  0  0  0
   -8.3551  -12.0161   11.9003 N   0  0  0  0  0  0  0  0  0  0  0  0
   -7.2558  -11.3519   11.9335 N   0  0  0  0  0  0  0  0  0  0  0  0
   -6.2383  -12.1528   12.3172 C   0  0  0  0  0  0  0  0  0  0  0  0
   -6.7562  -13.3832   12.5360 C   0  0  0  0  0  0  0  0  0  0  0  0
   -4.7948  -11.7482   12.4769 C   0  0  0  0  0  0  0  0  0  0  0  0
   -7.1255   -9.9310   11.6027 C   0  0  0  0  0  0  0  0  0  0  0  0
   -8.5132   -9.2874   11.5599 C   0  0  0  0  0  0  0  0  0  0  0  0
   -9.7639  -16.6153   12.0689 C   0  0  0  0  0  0  0  0  0  0  0  0
  -10.9858  -16.5060   12.5385 N   0  0  0  0  0  0  0  0  0  0  0  0
  -11.5996  -17.6315   12.4643 N   0  0  0  0  0  0  0  0  0  0  0  0
  -10.8292  -18.5283   11.9508 N   0  0  0  0  0  0  0  0  0  0  0  0
   -9.6044  -17.8979   11.6697 N   0  0  0  0  0  0  0  0  0  0  0  0
  1  2  1  0
  1 12  1  0
  2  3  2  0
  2  4  1  0
  4  5  2  0
  4  8  1  0
  5  6  1  0
  6  7  1  0
  6 10  1  0
  7  8  2  0
  7  9  1  0
 10 11  1  0
 12 13  2  0
 12 16  1  0
 13 14  1  0
 14 15  2  0
 15 16  1  0
M  END
>  <Gold.Gold.Protein.RotatedWaterAtoms>  (676) 


>  <Gold.Id.Protein>  (676) 


>  <Gold.PLP.Chemscore.CHOScore>  (676) 
0.0000

>  <Gold.PLP.Chemscore.Hbond>  (676) 
2.2208

>  <Gold.PLP.Chemscore.Internal.Correction>  (676) 
0.0016

>  <Gold.PLP.Chemscore.Metal>  (676) 
0.0000

>  <Gold.PLP.Fitness>  (676) 
43.0765

>  <Gold.PLP.PLP>  (676) 
-37.8120

>  <Gold.PLP.ligand.clash>  (676) 
0.0000

>  <Gold.PLP.ligand.torsion>  (676) 
0.6998

>  <Gold.PLP.part.buried>  (676) 
4.8778

>  <Gold.PLP.part.hbond>  (676) 
-6.3987

>  <Gold.PLP.part.metal>  (676) 
0.0000

>  <Gold.PLP.part.nonpolar>  (676) 
-36.3068

>  <Gold.PLP.part.repulsive>  (676) 
0.9837

>  <Gold.Protein.RotatedAtoms>  (676) 


>  <Gold.Protein.RotatedTorsions>  (676) 


>  <Gold.Protein.RotatedWaterAtoms>  (676) 


>  <Gold.Version>  (676) 
5.3.0

>  <PLP.Chemscore.CHOScore>  (676) 


>  <PLP.Chemscore.Hbond>  (676) 


>  <PLP.Chemscore.Internal.Correction>  (676) 


>  <PLP.Chemscore.Metal>  (676) 


>  <PLP.Fitness>  (676) 


>  <PLP.PLP>  (676) 


>  <PLP.ligand.clash>  (676) 


>  <PLP.ligand.torsion>  (676) 


>  <PLP.part.buried>  (676) 


>  <PLP.part.hbond>  (676) 


>  <PLP.part.metal>  (676) 


>  <PLP.part.nonpolar>  (676) 


>  <PLP.part.repulsive>  (676) 


>  <Version>  (676) 


$$$$
3676|Compound_2223|Compounds_3D_F|sdf|660|dock4|1
     RDKit          3D

 16 17  0  0  0  0  0  0  0  0999 V2000
   -9.3103  -17.8260   11.6003 N   0  0  0  0  0  0  0  0  0  0  0  0
   -9.0743  -16.5657   12.0163 C   0  0  0  0  0  0  0  0  0  0  0  0
  -10.0027  -15.8406   12.3143 O   0  0  0  0  0  0  0  0  0  0  0  0
   -7.6879  -16.0674   12.1098 C   0  0  0  0  0  0  0  0  0  0  0  0
   -7.3126  -14.8110   12.2508 N   0  0  0  0  0  0  0  0  0  0  0  0
   -6.0308  -14.7360   12.2983 N   0  0  0  0  0  0  0  0  0  0  0  0
   -5.4871  -15.9674   12.1885 C   0  0  0  0  0  0  0  0  0  0  0  0
   -6.5073  -16.8479   12.0717 C   0  0  0  0  0  0  0  0  0  0  0  0
   -4.0163  -16.2983   12.1997 C   0  0  0  0  0  0  0  0  0  0  0  0
   -5.2697  -13.4938   12.4496 C   0  0  0  0  0  0  0  0  0  0  0  0
   -6.2342  -12.3068   12.4995 C   0  0  0  0  0  0  0  0  0  0  0  0
  -10.6133  -18.2934   11.5074 C   0  0  0  0  0  0  0  0  0  0  0  0
  -11.6481  -17.8624   12.1922 N   0  0  0  0  0  0  0  0  0  0  0  0
  -12.7074  -18.5097   11.8636 N   0  0  0  0  0  0  0  0  0  0  0  0
  -12.4333  -19.3874   10.9602 N   0  0  0  0  0  0  0  0  0  0  0  0
  -11.0579  -19.2762   10.6910 N   0  0  0  0  0  0  0  0  0  0  0  0
  1  2  1  0
  1 12  1  0
  2  3  2  0
  2  4  1  0
  4  5  2  0
  4  8  1  0
  5  6  1  0
  6  7  1  0
  6 10  1  0
  7  8  2  0
  7  9  1  0
 10 11  1  0
 12 13  2  0
 12 16  1  0
 13 14  1  0
 14 15  2  0
 15 16  1  0
M  END
>  <Gold.Gold.Protein.RotatedWaterAtoms>  (677) 


>  <Gold.Id.Protein>  (677) 


>  <Gold.PLP.Chemscore.CHOScore>  (677) 
0.0000

>  <Gold.PLP.Chemscore.Hbond>  (677) 
1.9516

>  <Gold.PLP.Chemscore.Internal.Correction>  (677) 
0.0006

>  <Gold.PLP.Chemscore.Metal>  (677) 
0.0000

>  <Gold.PLP.Fitness>  (677) 
41.4859

>  <Gold.PLP.PLP>  (677) 
-36.0959

>  <Gold.PLP.ligand.clash>  (677) 
0.0000

>  <Gold.PLP.ligand.torsion>  (677) 
0.2327

>  <Gold.PLP.part.buried>  (677) 
-7.2179

>  <Gold.PLP.part.hbond>  (677) 
-2.5053

>  <Gold.PLP.part.metal>  (677) 
0.0000

>  <Gold.PLP.part.nonpolar>  (677) 
-28.4306

>  <Gold.PLP.part.repulsive>  (677) 
0.3764

>  <Gold.Protein.RotatedAtoms>  (677) 


>  <Gold.Protein.RotatedTorsions>  (677) 


>  <Gold.Protein.RotatedWaterAtoms>  (677) 


>  <Gold.Version>  (677) 
5.3.0

>  <PLP.Chemscore.CHOScore>  (677) 


>  <PLP.Chemscore.Hbond>  (677) 


>  <PLP.Chemscore.Internal.Correction>  (677) 


>  <PLP.Chemscore.Metal>  (677) 


>  <PLP.Fitness>  (677) 


>  <PLP.PLP>  (677) 


>  <PLP.ligand.clash>  (677) 


>  <PLP.ligand.torsion>  (677) 


>  <PLP.part.buried>  (677) 


>  <PLP.part.hbond>  (677) 


>  <PLP.part.metal>  (677) 


>  <PLP.part.nonpolar>  (677) 


>  <PLP.part.repulsive>  (677) 


>  <Version>  (677) 


$$$$
3677|Compound_2223|Compounds_3D_F|sdf|660|dock5|1
     RDKit          3D

 16 17  0  0  0  0  0  0  0  0999 V2000
   -3.9735  -16.1386   10.9995 N   0  0  0  0  0  0  0  0  0  0  0  0
   -5.1950  -16.3321   11.5358 C   0  0  0  0  0  0  0  0  0  0  0  0
   -5.5833  -17.4592   11.7711 O   0  0  0  0  0  0  0  0  0  0  0  0
   -6.0600  -15.1745   11.8370 C   0  0  0  0  0  0  0  0  0  0  0  0
   -5.6699  -13.9272   12.0137 N   0  0  0  0  0  0  0  0  0  0  0  0
   -6.6844  -13.1779   12.2587 N   0  0  0  0  0  0  0  0  0  0  0  0
   -7.8181  -13.9119   12.2550 C   0  0  0  0  0  0  0  0  0  0  0  0
   -7.4680  -15.1903   11.9850 C   0  0  0  0  0  0  0  0  0  0  0  0
   -9.2144  -13.3994   12.5010 C   0  0  0  0  0  0  0  0  0  0  0  0
   -6.6200  -11.7357   12.5061 C   0  0  0  0  0  0  0  0  0  0  0  0
   -7.6264  -11.0175   11.6044 C   0  0  0  0  0  0  0  0  0  0  0  0
   -3.1620  -17.2264   10.7115 C   0  0  0  0  0  0  0  0  0  0  0  0
   -2.0086  -17.1956   10.0837 N   0  0  0  0  0  0  0  0  0  0  0  0
   -1.5184  -18.3782    9.9828 N   0  0  0  0  0  0  0  0  0  0  0  0
   -2.3082  -19.2380   10.5292 N   0  0  0  0  0  0  0  0  0  0  0  0
   -3.4078  -18.5183   11.0287 N   0  0  0  0  0  0  0  0  0  0  0  0
  1  2  1  0
  1 12  1  0
  2  3  2  0
  2  4  1  0
  4  5  2  0
  4  8  1  0
  5  6  1  0
  6  7  1  0
  6 10  1  0
  7  8  2  0
  7  9  1  0
 10 11  1  0
 12 13  2  0
 12 16  1  0
 13 14  1  0
 14 15  2  0
 15 16  1  0
M  END
>  <Gold.Gold.Protein.RotatedWaterAtoms>  (678) 


>  <Gold.Id.Protein>  (678) 


>  <Gold.PLP.Chemscore.CHOScore>  (678) 
0.0000

>  <Gold.PLP.Chemscore.Hbond>  (678) 
2.0000

>  <Gold.PLP.Chemscore.Internal.Correction>  (678) 
0.0005

>  <Gold.PLP.Chemscore.Metal>  (678) 
0.0000

>  <Gold.PLP.Fitness>  (678) 
43.9987

>  <Gold.PLP.PLP>  (678) 
-38.5851

>  <Gold.PLP.ligand.clash>  (678) 
0.0042

>  <Gold.PLP.ligand.torsion>  (678) 
0.2914

>  <Gold.PLP.part.buried>  (678) 
-8.9504

>  <Gold.PLP.part.hbond>  (678) 
-2.0000

>  <Gold.PLP.part.metal>  (678) 
0.0000

>  <Gold.PLP.part.nonpolar>  (678) 
-28.3761

>  <Gold.PLP.part.repulsive>  (678) 
0.5073

>  <Gold.Protein.RotatedAtoms>  (678) 


>  <Gold.Protein.RotatedTorsions>  (678) 


>  <Gold.Protein.RotatedWaterAtoms>  (678) 


>  <Gold.Version>  (678) 
5.3.0

>  <PLP.Chemscore.CHOScore>  (678) 


>  <PLP.Chemscore.Hbond>  (678) 


>  <PLP.Chemscore.Internal.Correction>  (678) 


>  <PLP.Chemscore.Metal>  (678) 


>  <PLP.Fitness>  (678) 


>  <PLP.PLP>  (678) 


>  <PLP.ligand.clash>  (678) 


>  <PLP.ligand.torsion>  (678) 


>  <PLP.part.buried>  (678) 


>  <PLP.part.hbond>  (678) 


>  <PLP.part.metal>  (678) 


>  <PLP.part.nonpolar>  (678) 


>  <PLP.part.repulsive>  (678) 


>  <Version>  (678) 


$$$$
3678|Compound_2223|Compounds_3D_F|sdf|660|dock6|1
     RDKit          3D

 16 17  0  0  0  0  0  0  0  0999 V2000
   -3.9462  -16.3050   11.0084 N   0  0  0  0  0  0  0  0  0  0  0  0
   -5.0891  -16.4215   11.7136 C   0  0  0  0  0  0  0  0  0  0  0  0
   -5.4084  -17.4976   12.1791 O   0  0  0  0  0  0  0  0  0  0  0  0
   -5.9519  -15.2417   11.9199 C   0  0  0  0  0  0  0  0  0  0  0  0
   -5.5551  -13.9898   12.0408 N   0  0  0  0  0  0  0  0  0  0  0  0
   -6.5697  -13.2194   12.2084 N   0  0  0  0  0  0  0  0  0  0  0  0
   -7.7100  -13.9429   12.2059 C   0  0  0  0  0  0  0  0  0  0  0  0
   -7.3642  -15.2374   12.0195 C   0  0  0  0  0  0  0  0  0  0  0  0
   -9.1086  -13.4058   12.3744 C   0  0  0  0  0  0  0  0  0  0  0  0
   -6.4988  -11.7663   12.3777 C   0  0  0  0  0  0  0  0  0  0  0  0
   -5.0342  -11.3350   12.4804 C   0  0  0  0  0  0  0  0  0  0  0  0
   -3.1372  -17.4146   10.8098 C   0  0  0  0  0  0  0  0  0  0  0  0
   -1.9014  -17.4103   10.3646 N   0  0  0  0  0  0  0  0  0  0  0  0
   -1.4416  -18.6075   10.2992 N   0  0  0  0  0  0  0  0  0  0  0  0
   -2.3337  -19.4514   10.6910 N   0  0  0  0  0  0  0  0  0  0  0  0
   -3.4716  -18.7045   11.0428 N   0  0  0  0  0  0  0  0  0  0  0  0
  1  2  1  0
  1 12  1  0
  2  3  2  0
  2  4  1  0
  4  5  2  0
  4  8  1  0
  5  6  1  0
  6  7  1  0
  6 10  1  0
  7  8  2  0
  7  9  1  0
 10 11  1  0
 12 13  2  0
 12 16  1  0
 13 14  1  0
 14 15  2  0
 15 16  1  0
M  END
>  <Gold.Gold.Protein.RotatedWaterAtoms>  (679) 


>  <Gold.Id.Protein>  (679) 


>  <Gold.PLP.Chemscore.CHOScore>  (679) 
0.0000

>  <Gold.PLP.Chemscore.Hbond>  (679) 
2.0000

>  <Gold.PLP.Chemscore.Internal.Correction>  (679) 
0.0005

>  <Gold.PLP.Chemscore.Metal>  (679) 
0.0000

>  <Gold.PLP.Fitness>  (679) 
41.3878

>  <Gold.PLP.PLP>  (679) 
-36.4154

>  <Gold.PLP.ligand.clash>  (679) 
0.0000

>  <Gold.PLP.ligand.torsion>  (679) 
0.5141

>  <Gold.PLP.part.buried>  (679) 
-7.1424

>  <Gold.PLP.part.hbond>  (679) 
-2.0000

>  <Gold.PLP.part.metal>  (679) 
0.0000

>  <Gold.PLP.part.nonpolar>  (679) 
-28.5222

>  <Gold.PLP.part.repulsive>  (679) 
0.4553

>  <Gold.Protein.RotatedAtoms>  (679) 


>  <Gold.Protein.RotatedTorsions>  (679) 


>  <Gold.Protein.RotatedWaterAtoms>  (679) 


>  <Gold.Version>  (679) 
5.3.0

>  <PLP.Chemscore.CHOScore>  (679) 


>  <PLP.Chemscore.Hbond>  (679) 


>  <PLP.Chemscore.Internal.Correction>  (679) 


>  <PLP.Chemscore.Metal>  (679) 


>  <PLP.Fitness>  (679) 


>  <PLP.PLP>  (679) 


>  <PLP.ligand.clash>  (679) 


>  <PLP.ligand.torsion>  (679) 


>  <PLP.part.buried>  (679) 


>  <PLP.part.hbond>  (679) 


>  <PLP.part.metal>  (679) 


>  <PLP.part.nonpolar>  (679) 


>  <PLP.part.repulsive>  (679) 


>  <Version>  (679) 


$$$$
3679|Compound_2223|Compounds_3D_F|sdf|660|dock7|1
     RDKit          3D

 16 17  0  0  0  0  0  0  0  0999 V2000
   -4.0289  -16.1762   11.0167 N   0  0  0  0  0  0  0  0  0  0  0  0
   -5.2913  -16.3141   11.4688 C   0  0  0  0  0  0  0  0  0  0  0  0
   -5.7575  -17.4232   11.6393 O   0  0  0  0  0  0  0  0  0  0  0  0
   -6.1064  -15.1175   11.7566 C   0  0  0  0  0  0  0  0  0  0  0  0
   -5.6573  -13.9171   12.0673 N   0  0  0  0  0  0  0  0  0  0  0  0
   -6.6412  -13.1120   12.2526 N   0  0  0  0  0  0  0  0  0  0  0  0
   -7.8131  -13.7576   12.0688 C   0  0  0  0  0  0  0  0  0  0  0  0
   -7.5200  -15.0380   11.7457 C   0  0  0  0  0  0  0  0  0  0  0  0
   -9.1913  -13.1597   12.1952 C   0  0  0  0  0  0  0  0  0  0  0  0
   -6.5101  -11.6980   12.6114 C   0  0  0  0  0  0  0  0  0  0  0  0
   -7.3542  -10.8489   11.6584 C   0  0  0  0  0  0  0  0  0  0  0  0
   -3.2639  -17.3003   10.7412 C   0  0  0  0  0  0  0  0  0  0  0  0
   -2.0791  -17.3188   10.1742 N   0  0  0  0  0  0  0  0  0  0  0  0
   -1.6496  -18.5242   10.0666 N   0  0  0  0  0  0  0  0  0  0  0  0
   -2.5128  -19.3515   10.5482 N   0  0  0  0  0  0  0  0  0  0  0  0
   -3.5962  -18.5838   11.0102 N   0  0  0  0  0  0  0  0  0  0  0  0
  1  2  1  0
  1 12  1  0
  2  3  2  0
  2  4  1  0
  4  5  2  0
  4  8  1  0
  5  6  1  0
  6  7  1  0
  6 10  1  0
  7  8  2  0
  7  9  1  0
 10 11  1  0
 12 13  2  0
 12 16  1  0
 13 14  1  0
 14 15  2  0
 15 16  1  0
M  END
>  <Gold.Gold.Protein.RotatedWaterAtoms>  (680) 


>  <Gold.Id.Protein>  (680) 


>  <Gold.PLP.Chemscore.CHOScore>  (680) 
0.0000

>  <Gold.PLP.Chemscore.Hbond>  (680) 
1.9920

>  <Gold.PLP.Chemscore.Internal.Correction>  (680) 
0.0005

>  <Gold.PLP.Chemscore.Metal>  (680) 
0.0000

>  <Gold.PLP.Fitness>  (680) 
42.5982

>  <Gold.PLP.PLP>  (680) 
-37.3462

>  <Gold.PLP.ligand.clash>  (680) 
0.0000

>  <Gold.PLP.ligand.torsion>  (680) 
0.3623

>  <Gold.PLP.part.buried>  (680) 
-8.5109

>  <Gold.PLP.part.hbond>  (680) 
-2.0000

>  <Gold.PLP.part.metal>  (680) 
0.0000

>  <Gold.PLP.part.nonpolar>  (680) 
-27.2922

>  <Gold.PLP.part.repulsive>  (680) 
0.4792

>  <Gold.Protein.RotatedAtoms>  (680) 


>  <Gold.Protein.RotatedTorsions>  (680) 


>  <Gold.Protein.RotatedWaterAtoms>  (680) 


>  <Gold.Version>  (680) 
5.3.0

>  <PLP.Chemscore.CHOScore>  (680) 


>  <PLP.Chemscore.Hbond>  (680) 


>  <PLP.Chemscore.Internal.Correction>  (680) 


>  <PLP.Chemscore.Metal>  (680) 


>  <PLP.Fitness>  (680) 


>  <PLP.PLP>  (680) 


>  <PLP.ligand.clash>  (680) 


>  <PLP.ligand.torsion>  (680) 


>  <PLP.part.buried>  (680) 


>  <PLP.part.hbond>  (680) 


>  <PLP.part.metal>  (680) 


>  <PLP.part.nonpolar>  (680) 


>  <PLP.part.repulsive>  (680) 


>  <Version>  (680) 


$$$$
3680|Compound_2223|Compounds_3D_F|sdf|660|dock8|1
     RDKit          3D

 16 17  0  0  0  0  0  0  0  0999 V2000
   -8.9894  -15.9358   11.6173 N   0  0  0  0  0  0  0  0  0  0  0  0
   -9.1781  -14.6959   12.1116 C   0  0  0  0  0  0  0  0  0  0  0  0
  -10.2876  -14.3433   12.4596 O   0  0  0  0  0  0  0  0  0  0  0  0
   -8.0365  -13.7676   12.2301 C   0  0  0  0  0  0  0  0  0  0  0  0
   -8.0752  -12.4552   12.1063 N   0  0  0  0  0  0  0  0  0  0  0  0
   -6.9003  -11.9616   12.2702 N   0  0  0  0  0  0  0  0  0  0  0  0
   -6.0104  -12.9473   12.5155 C   0  0  0  0  0  0  0  0  0  0  0  0
   -6.6919  -14.1158   12.5045 C   0  0  0  0  0  0  0  0  0  0  0  0
   -4.5328  -12.7756   12.7611 C   0  0  0  0  0  0  0  0  0  0  0  0
   -6.5740  -10.5354   12.2008 C   0  0  0  0  0  0  0  0  0  0  0  0
   -7.8408   -9.7364   11.8866 C   0  0  0  0  0  0  0  0  0  0  0  0
  -10.0627  -16.8072   11.5011 C   0  0  0  0  0  0  0  0  0  0  0  0
  -10.9276  -17.1105   12.4420 N   0  0  0  0  0  0  0  0  0  0  0  0
  -11.7962  -17.9483   12.0029 N   0  0  0  0  0  0  0  0  0  0  0  0
  -11.5552  -18.2378   10.7702 N   0  0  0  0  0  0  0  0  0  0  0  0
  -10.4180  -17.5010   10.3955 N   0  0  0  0  0  0  0  0  0  0  0  0
  1  2  1  0
  1 12  1  0
  2  3  2  0
  2  4  1  0
  4  5  2  0
  4  8  1  0
  5  6  1  0
  6  7  1  0
  6 10  1  0
  7  8  2  0
  7  9  1  0
 10 11  1  0
 12 13  2  0
 12 16  1  0
 13 14  1  0
 14 15  2  0
 15 16  1  0
M  END
>  <Gold.Gold.Protein.RotatedWaterAtoms>  (681) 


>  <Gold.Id.Protein>  (681) 


>  <Gold.PLP.Chemscore.CHOScore>  (681) 
0.0000

>  <Gold.PLP.Chemscore.Hbond>  (681) 
1.0113

>  <Gold.PLP.Chemscore.Internal.Correction>  (681) 
0.0005

>  <Gold.PLP.Chemscore.Metal>  (681) 
0.0000

>  <Gold.PLP.Fitness>  (681) 
42.7113

>  <Gold.PLP.PLP>  (681) 
-41.4519

>  <Gold.PLP.ligand.clash>  (681) 
0.0000

>  <Gold.PLP.ligand.torsion>  (681) 
0.8875

>  <Gold.PLP.part.buried>  (681) 
1.6150

>  <Gold.PLP.part.hbond>  (681) 
-7.6264

>  <Gold.PLP.part.metal>  (681) 
0.0000

>  <Gold.PLP.part.nonpolar>  (681) 
-37.4797

>  <Gold.PLP.part.repulsive>  (681) 
0.4198

>  <Gold.Protein.RotatedAtoms>  (681) 


>  <Gold.Protein.RotatedTorsions>  (681) 


>  <Gold.Protein.RotatedWaterAtoms>  (681) 


>  <Gold.Version>  (681) 
5.3.0

>  <PLP.Chemscore.CHOScore>  (681) 


>  <PLP.Chemscore.Hbond>  (681) 


>  <PLP.Chemscore.Internal.Correction>  (681) 


>  <PLP.Chemscore.Metal>  (681) 


>  <PLP.Fitness>  (681) 


>  <PLP.PLP>  (681) 


>  <PLP.ligand.clash>  (681) 


>  <PLP.ligand.torsion>  (681) 


>  <PLP.part.buried>  (681) 


>  <PLP.part.hbond>  (681) 


>  <PLP.part.metal>  (681) 


>  <PLP.part.nonpolar>  (681) 


>  <PLP.part.repulsive>  (681) 


>  <Version>  (681) 


$$$$
3681|Compound_2223|Compounds_3D_F|sdf|660|dock9|1
     RDKit          3D

 16 17  0  0  0  0  0  0  0  0999 V2000
   -3.9638  -16.2183   10.9217 N   0  0  0  0  0  0  0  0  0  0  0  0
   -5.2006  -16.4196   11.4185 C   0  0  0  0  0  0  0  0  0  0  0  0
   -5.6002  -17.5505   11.6131 O   0  0  0  0  0  0  0  0  0  0  0  0
   -6.0686  -15.2659   11.7261 C   0  0  0  0  0  0  0  0  0  0  0  0
   -5.6757  -14.0325   11.9784 N   0  0  0  0  0  0  0  0  0  0  0  0
   -6.6942  -13.2823   12.2039 N   0  0  0  0  0  0  0  0  0  0  0  0
   -7.8333  -14.0015   12.1089 C   0  0  0  0  0  0  0  0  0  0  0  0
   -7.4824  -15.2709   11.8004 C   0  0  0  0  0  0  0  0  0  0  0  0
   -9.2354  -13.4833   12.3051 C   0  0  0  0  0  0  0  0  0  0  0  0
   -6.6284  -11.8533   12.5186 C   0  0  0  0  0  0  0  0  0  0  0  0
   -7.5798  -11.0838   11.5997 C   0  0  0  0  0  0  0  0  0  0  0  0
   -3.1493  -17.3023   10.6276 C   0  0  0  0  0  0  0  0  0  0  0  0
   -1.9860  -17.2625   10.0188 N   0  0  0  0  0  0  0  0  0  0  0  0
   -1.4960  -18.4440    9.9051 N   0  0  0  0  0  0  0  0  0  0  0  0
   -2.2956  -19.3119   10.4238 N   0  0  0  0  0  0  0  0  0  0  0  0
   -3.4019  -18.5991   10.9182 N   0  0  0  0  0  0  0  0  0  0  0  0
  1  2  1  0
  1 12  1  0
  2  3  2  0
  2  4  1  0
  4  5  2  0
  4  8  1  0
  5  6  1  0
  6  7  1  0
  6 10  1  0
  7  8  2  0
  7  9  1  0
 10 11  1  0
 12 13  2  0
 12 16  1  0
 13 14  1  0
 14 15  2  0
 15 16  1  0
M  END
>  <Gold.Gold.Protein.RotatedWaterAtoms>  (682) 


>  <Gold.Id.Protein>  (682) 


>  <Gold.PLP.Chemscore.CHOScore>  (682) 
0.0000

>  <Gold.PLP.Chemscore.Hbond>  (682) 
2.0000

>  <Gold.PLP.Chemscore.Internal.Correction>  (682) 
0.0005

>  <Gold.PLP.Chemscore.Metal>  (682) 
0.0000

>  <Gold.PLP.Fitness>  (682) 
43.5153

>  <Gold.PLP.PLP>  (682) 
-38.1956

>  <Gold.PLP.ligand.clash>  (682) 
0.0227

>  <Gold.PLP.ligand.torsion>  (682) 
0.3291

>  <Gold.PLP.part.buried>  (682) 
-8.6175

>  <Gold.PLP.part.hbond>  (682) 
-2.0000

>  <Gold.PLP.part.metal>  (682) 
0.0000

>  <Gold.PLP.part.nonpolar>  (682) 
-27.9102

>  <Gold.PLP.part.repulsive>  (682) 
0.4774

>  <Gold.Protein.RotatedAtoms>  (682) 


>  <Gold.Protein.RotatedTorsions>  (682) 


>  <Gold.Protein.RotatedWaterAtoms>  (682) 


>  <Gold.Version>  (682) 
5.3.0

>  <PLP.Chemscore.CHOScore>  (682) 


>  <PLP.Chemscore.Hbond>  (682) 


>  <PLP.Chemscore.Internal.Correction>  (682) 


>  <PLP.Chemscore.Metal>  (682) 


>  <PLP.Fitness>  (682) 


>  <PLP.PLP>  (682) 


>  <PLP.ligand.clash>  (682) 


>  <PLP.ligand.torsion>  (682) 


>  <PLP.part.buried>  (682) 


>  <PLP.part.hbond>  (682) 


>  <PLP.part.metal>  (682) 


>  <PLP.part.nonpolar>  (682) 


>  <PLP.part.repulsive>  (682) 


>  <Version>  (682) 


$$$$
3682|Compound_2254|Compounds_3D_F|sdf|661|dock1|1
     RDKit          3D

 15 16  0  0  0  0  0  0  0  0999 V2000
   -8.2553   -9.3794   11.1537 O   0  0  0  0  0  0  0  0  0  0  0  0
   -7.7196  -10.5428   11.6022 C   0  0  0  0  0  0  0  0  0  0  0  0
   -6.3949  -10.5691   12.0301 C   0  0  0  0  0  0  0  0  0  0  0  0
   -5.8542  -11.7580   12.4873 C   0  0  0  0  0  0  0  0  0  0  0  0
   -6.6573  -12.8896   12.5014 C   0  0  0  0  0  0  0  0  0  0  0  0
   -7.9736  -12.7933   12.0590 C   0  0  0  0  0  0  0  0  0  0  0  0
   -8.4603  -11.6330   11.6321 N   0  0  0  0  0  0  0  0  0  0  0  0
   -8.8407  -13.9933   12.0689 C   0  0  0  0  0  0  0  0  0  0  0  0
  -10.0369  -13.8771   12.2505 O   0  0  0  0  0  0  0  0  0  0  0  0
   -8.3037  -15.2142   11.8772 N   0  0  0  0  0  0  0  0  0  0  0  0
   -9.1179  -16.3408   11.8864 C   0  0  0  0  0  0  0  0  0  0  0  0
  -10.3763  -16.4809   12.2826 N   0  0  0  0  0  0  0  0  0  0  0  0
  -10.9726  -17.5906   12.2219 N   0  0  0  0  0  0  0  0  0  0  0  0
  -10.3869  -18.6784   11.7611 C   0  0  0  0  0  0  0  0  0  0  0  0
   -8.7731  -18.0164   11.3592 S   0  0  0  0  0  0  0  0  0  0  0  0
  1  2  1  0
  2  3  2  0
  2  7  1  0
  3  4  1  0
  4  5  2  0
  5  6  1  0
  6  7  2  0
  6  8  1  0
  8  9  2  0
  8 10  1  0
 10 11  1  0
 11 12  2  0
 11 15  1  0
 12 13  1  0
 13 14  2  0
 14 15  1  0
M  END
>  <Gold.Gold.Protein.RotatedWaterAtoms>  (683) 


>  <Gold.Id.Protein>  (683) 


>  <Gold.PLP.Chemscore.CHOScore>  (683) 
0.0000

>  <Gold.PLP.Chemscore.Hbond>  (683) 
2.8553

>  <Gold.PLP.Chemscore.Internal.Correction>  (683) 
0.0001

>  <Gold.PLP.Chemscore.Metal>  (683) 
0.0000

>  <Gold.PLP.Fitness>  (683) 
54.0459

>  <Gold.PLP.PLP>  (683) 
-46.3703

>  <Gold.PLP.ligand.clash>  (683) 
0.0000

>  <Gold.PLP.ligand.torsion>  (683) 
0.4451

>  <Gold.PLP.part.buried>  (683) 
-7.3735

>  <Gold.PLP.part.hbond>  (683) 
-5.2720

>  <Gold.PLP.part.metal>  (683) 
0.0000

>  <Gold.PLP.part.nonpolar>  (683) 
-33.6637

>  <Gold.PLP.part.repulsive>  (683) 
0.4447

>  <Gold.Protein.RotatedAtoms>  (683) 


>  <Gold.Protein.RotatedTorsions>  (683) 


>  <Gold.Protein.RotatedWaterAtoms>  (683) 


>  <Gold.Version>  (683) 
5.3.0

>  <PLP.Chemscore.CHOScore>  (683) 


>  <PLP.Chemscore.Hbond>  (683) 


>  <PLP.Chemscore.Internal.Correction>  (683) 


>  <PLP.Chemscore.Metal>  (683) 


>  <PLP.Fitness>  (683) 


>  <PLP.PLP>  (683) 


>  <PLP.ligand.clash>  (683) 


>  <PLP.ligand.torsion>  (683) 


>  <PLP.part.buried>  (683) 


>  <PLP.part.hbond>  (683) 


>  <PLP.part.metal>  (683) 


>  <PLP.part.nonpolar>  (683) 


>  <PLP.part.repulsive>  (683) 


>  <Version>  (683) 


$$$$
3683|Compound_2254|Compounds_3D_F|sdf|661|dock2|1
     RDKit          3D

 15 16  0  0  0  0  0  0  0  0999 V2000
   -7.9000   -9.3503   11.3867 O   0  0  0  0  0  0  0  0  0  0  0  0
   -7.4243  -10.5703   11.7431 C   0  0  0  0  0  0  0  0  0  0  0  0
   -6.0966  -10.7002   12.1418 C   0  0  0  0  0  0  0  0  0  0  0  0
   -5.6173  -11.9466   12.5050 C   0  0  0  0  0  0  0  0  0  0  0  0
   -6.4832  -13.0298   12.4567 C   0  0  0  0  0  0  0  0  0  0  0  0
   -7.7987  -12.8296   12.0482 C   0  0  0  0  0  0  0  0  0  0  0  0
   -8.2253  -11.6169   11.7123 N   0  0  0  0  0  0  0  0  0  0  0  0
   -8.7325  -13.9773   11.9925 C   0  0  0  0  0  0  0  0  0  0  0  0
   -9.9314  -13.7833   11.9452 O   0  0  0  0  0  0  0  0  0  0  0  0
   -8.2532  -15.2366   11.9946 N   0  0  0  0  0  0  0  0  0  0  0  0
   -9.1299  -16.3140   11.9420 C   0  0  0  0  0  0  0  0  0  0  0  0
  -10.3896  -16.4094   12.3470 N   0  0  0  0  0  0  0  0  0  0  0  0
  -11.0487  -17.4776   12.2226 N   0  0  0  0  0  0  0  0  0  0  0  0
  -10.5310  -18.5635   11.6827 C   0  0  0  0  0  0  0  0  0  0  0  0
   -8.8869  -17.9676   11.3009 S   0  0  0  0  0  0  0  0  0  0  0  0
  1  2  1  0
  2  3  2  0
  2  7  1  0
  3  4  1  0
  4  5  2  0
  5  6  1  0
  6  7  2  0
  6  8  1  0
  8  9  2  0
  8 10  1  0
 10 11  1  0
 11 12  2  0
 11 15  1  0
 12 13  1  0
 13 14  2  0
 14 15  1  0
M  END
>  <Gold.Gold.Protein.RotatedWaterAtoms>  (684) 


>  <Gold.Id.Protein>  (684) 


>  <Gold.PLP.Chemscore.CHOScore>  (684) 
0.0000

>  <Gold.PLP.Chemscore.Hbond>  (684) 
2.9263

>  <Gold.PLP.Chemscore.Internal.Correction>  (684) 
0.0001

>  <Gold.PLP.Chemscore.Metal>  (684) 
0.0000

>  <Gold.PLP.Fitness>  (684) 
55.0327

>  <Gold.PLP.PLP>  (684) 
-46.8225

>  <Gold.PLP.ligand.clash>  (684) 
0.0000

>  <Gold.PLP.ligand.torsion>  (684) 
0.2843

>  <Gold.PLP.part.buried>  (684) 
-8.9670

>  <Gold.PLP.part.hbond>  (684) 
-5.4489

>  <Gold.PLP.part.metal>  (684) 
0.0000

>  <Gold.PLP.part.nonpolar>  (684) 
-32.8876

>  <Gold.PLP.part.repulsive>  (684) 
0.4542

>  <Gold.Protein.RotatedAtoms>  (684) 


>  <Gold.Protein.RotatedTorsions>  (684) 


>  <Gold.Protein.RotatedWaterAtoms>  (684) 


>  <Gold.Version>  (684) 
5.3.0

>  <PLP.Chemscore.CHOScore>  (684) 


>  <PLP.Chemscore.Hbond>  (684) 


>  <PLP.Chemscore.Internal.Correction>  (684) 


>  <PLP.Chemscore.Metal>  (684) 


>  <PLP.Fitness>  (684) 


>  <PLP.PLP>  (684) 


>  <PLP.ligand.clash>  (684) 


>  <PLP.ligand.torsion>  (684) 


>  <PLP.part.buried>  (684) 


>  <PLP.part.hbond>  (684) 


>  <PLP.part.metal>  (684) 


>  <PLP.part.nonpolar>  (684) 


>  <PLP.part.repulsive>  (684) 


>  <Version>  (684) 


$$$$
3684|Compound_2254|Compounds_3D_F|sdf|661|dock3|1
     RDKit          3D

 15 16  0  0  0  0  0  0  0  0999 V2000
   -8.2793   -9.2244   11.1882 O   0  0  0  0  0  0  0  0  0  0  0  0
   -7.7725  -10.4092   11.6138 C   0  0  0  0  0  0  0  0  0  0  0  0
   -6.4422  -10.4818   12.0181 C   0  0  0  0  0  0  0  0  0  0  0  0
   -5.9311  -11.6924   12.4519 C   0  0  0  0  0  0  0  0  0  0  0  0
   -6.7688  -12.7986   12.4668 C   0  0  0  0  0  0  0  0  0  0  0  0
   -8.0888  -12.6561   12.0487 C   0  0  0  0  0  0  0  0  0  0  0  0
   -8.5463  -11.4762   11.6439 N   0  0  0  0  0  0  0  0  0  0  0  0
   -8.9927  -13.8288   12.0599 C   0  0  0  0  0  0  0  0  0  0  0  0
  -10.1967  -13.6674   12.0973 O   0  0  0  0  0  0  0  0  0  0  0  0
   -8.4803  -15.0747   12.0290 N   0  0  0  0  0  0  0  0  0  0  0  0
   -9.3290  -16.1755   12.0393 C   0  0  0  0  0  0  0  0  0  0  0  0
  -10.5709  -16.2912   12.4912 N   0  0  0  0  0  0  0  0  0  0  0  0
  -11.2049  -17.3793   12.4217 N   0  0  0  0  0  0  0  0  0  0  0  0
  -10.6771  -18.4674   11.8963 C   0  0  0  0  0  0  0  0  0  0  0  0
   -9.0637  -17.8410   11.4392 S   0  0  0  0  0  0  0  0  0  0  0  0
  1  2  1  0
  2  3  2  0
  2  7  1  0
  3  4  1  0
  4  5  2  0
  5  6  1  0
  6  7  2  0
  6  8  1  0
  8  9  2  0
  8 10  1  0
 10 11  1  0
 11 12  2  0
 11 15  1  0
 12 13  1  0
 13 14  2  0
 14 15  1  0
M  END
>  <Gold.Gold.Protein.RotatedWaterAtoms>  (685) 


>  <Gold.Id.Protein>  (685) 


>  <Gold.PLP.Chemscore.CHOScore>  (685) 
0.0000

>  <Gold.PLP.Chemscore.Hbond>  (685) 
3.0875

>  <Gold.PLP.Chemscore.Internal.Correction>  (685) 
0.0001

>  <Gold.PLP.Chemscore.Metal>  (685) 
0.0000

>  <Gold.PLP.Fitness>  (685) 
53.3555

>  <Gold.PLP.PLP>  (685) 
-44.7804

>  <Gold.PLP.ligand.clash>  (685) 
0.0000

>  <Gold.PLP.ligand.torsion>  (685) 
0.3438

>  <Gold.PLP.part.buried>  (685) 
-3.2921

>  <Gold.PLP.part.hbond>  (685) 
-5.4771

>  <Gold.PLP.part.metal>  (685) 
0.0000

>  <Gold.PLP.part.nonpolar>  (685) 
-34.8688

>  <Gold.PLP.part.repulsive>  (685) 
0.5208

>  <Gold.Protein.RotatedAtoms>  (685) 


>  <Gold.Protein.RotatedTorsions>  (685) 


>  <Gold.Protein.RotatedWaterAtoms>  (685) 


>  <Gold.Version>  (685) 
5.3.0

>  <PLP.Chemscore.CHOScore>  (685) 


>  <PLP.Chemscore.Hbond>  (685) 


>  <PLP.Chemscore.Internal.Correction>  (685) 


>  <PLP.Chemscore.Metal>  (685) 


>  <PLP.Fitness>  (685) 


>  <PLP.PLP>  (685) 


>  <PLP.ligand.clash>  (685) 


>  <PLP.ligand.torsion>  (685) 


>  <PLP.part.buried>  (685) 


>  <PLP.part.hbond>  (685) 


>  <PLP.part.metal>  (685) 


>  <PLP.part.nonpolar>  (685) 


>  <PLP.part.repulsive>  (685) 


>  <Version>  (685) 


$$$$
3685|Compound_224|Compounds_3D_F|sdf|70|dock10|1
     RDKit          3D

 29 32  0  0  0  0  0  0  0  0999 V2000
   -8.4854  -19.7767    7.4098 O   0  0  0  0  0  0  0  0  0  0  0  0
   -8.7836  -19.3576    8.6632 C   0  0  0  0  0  0  0  0  0  0  0  0
   -8.1143  -18.3562    9.2186 N   0  0  0  0  0  0  0  0  0  0  0  0
   -8.3989  -17.9375   10.4450 C   0  0  0  0  0  0  0  0  0  0  0  0
   -9.3528  -18.4896   11.1760 N   0  0  0  0  0  0  0  0  0  0  0  0
  -10.0715  -19.4988   10.6973 C   0  0  0  0  0  0  0  0  0  0  0  0
   -9.8095  -19.9703    9.3995 C   0  0  0  0  0  0  0  0  0  0  0  0
  -10.6728  -20.9880    9.1627 N   0  0  0  0  0  0  0  0  0  0  0  0
  -11.4286  -21.1670   10.2065 C   0  0  0  0  0  0  0  0  0  0  0  0
  -11.0998  -20.2687   11.1795 N   0  0  0  0  0  0  0  0  0  0  0  0
  -11.7243  -20.1525   12.4990 C   0  0  0  0  0  0  0  0  0  0  0  0
  -10.9259  -20.8296   13.4938 O   0  0  0  0  0  0  0  0  0  0  0  0
  -11.8254  -21.0852   14.5944 C   0  0  0  0  0  0  0  0  0  0  0  0
  -11.2825  -22.2119   15.4766 C   0  0  0  0  0  0  0  0  0  0  0  0
  -12.3258  -22.6969   16.3248 O   0  0  0  0  0  0  0  0  0  0  0  0
  -13.1522  -21.5133   13.9278 C   0  0  0  0  0  0  0  0  0  0  0  0
  -14.2675  -20.9970   14.6555 O   0  0  0  0  0  0  0  0  0  0  0  0
  -13.0846  -20.8829   12.5173 C   0  0  0  0  0  0  0  0  0  0  0  0
  -14.1564  -19.9573   12.3307 O   0  0  0  0  0  0  0  0  0  0  0  0
   -7.6680  -16.8845   10.9808 N   0  0  0  0  0  0  0  0  0  0  0  0
   -8.1833  -15.6385   10.9827 C   0  0  0  0  0  0  0  0  0  0  0  0
   -9.2872  -15.4372   10.5154 O   0  0  0  0  0  0  0  0  0  0  0  0
   -7.4075  -14.5196   11.5534 C   0  0  0  0  0  0  0  0  0  0  0  0
   -6.2301  -14.7712   12.2633 C   0  0  0  0  0  0  0  0  0  0  0  0
   -5.6742  -16.4014   12.4758 Cl  0  0  0  0  0  0  0  0  0  0  0  0
   -5.5101  -13.7183   12.7940 C   0  0  0  0  0  0  0  0  0  0  0  0
   -5.9522  -12.4200   12.6250 C   0  0  0  0  0  0  0  0  0  0  0  0
   -7.1175  -12.1638   11.9227 C   0  0  0  0  0  0  0  0  0  0  0  0
   -7.8437  -13.2033   11.3823 C   0  0  0  0  0  0  0  0  0  0  0  0
  1  2  1  0
  2  3  2  0
  2  7  1  0
  3  4  1  0
  4  5  2  0
  4 20  1  0
  5  6  1  0
  6  7  2  0
  6 10  1  0
  7  8  1  0
  8  9  2  0
  9 10  1  0
 10 11  1  0
 11 12  1  0
 11 18  1  0
 12 13  1  0
 13 14  1  0
 13 16  1  0
 14 15  1  0
 16 17  1  0
 16 18  1  0
 18 19  1  0
 20 21  1  0
 21 22  2  0
 21 23  1  0
 23 24  2  0
 23 29  1  0
 24 25  1  0
 24 26  1  0
 26 27  2  0
 27 28  1  0
 28 29  2  0
M  END
>  <Gold.Gold.Protein.RotatedWaterAtoms>  (686) 


>  <Gold.Id.Protein>  (686) 


>  <Gold.PLP.Chemscore.CHOScore>  (686) 
0.0000

>  <Gold.PLP.Chemscore.Hbond>  (686) 
0.9280

>  <Gold.PLP.Chemscore.Internal.Correction>  (686) 
0.4388

>  <Gold.PLP.Chemscore.Metal>  (686) 
0.0000

>  <Gold.PLP.Fitness>  (686) 
59.2796

>  <Gold.PLP.PLP>  (686) 
-58.8347

>  <Gold.PLP.ligand.clash>  (686) 
0.0000

>  <Gold.PLP.ligand.torsion>  (686) 
1.3889

>  <Gold.PLP.part.buried>  (686) 
-10.4197

>  <Gold.PLP.part.hbond>  (686) 
-3.8599

>  <Gold.PLP.part.metal>  (686) 
0.0000

>  <Gold.PLP.part.nonpolar>  (686) 
-44.0768

>  <Gold.PLP.part.repulsive>  (686) 
0.1195

>  <Gold.Protein.RotatedAtoms>  (686) 


>  <Gold.Protein.RotatedTorsions>  (686) 


>  <Gold.Protein.RotatedWaterAtoms>  (686) 


>  <Gold.Version>  (686) 
5.3.0

>  <PLP.Chemscore.CHOScore>  (686) 


>  <PLP.Chemscore.Hbond>  (686) 


>  <PLP.Chemscore.Internal.Correction>  (686) 


>  <PLP.Chemscore.Metal>  (686) 


>  <PLP.Fitness>  (686) 


>  <PLP.PLP>  (686) 


>  <PLP.ligand.clash>  (686) 


>  <PLP.ligand.torsion>  (686) 


>  <PLP.part.buried>  (686) 


>  <PLP.part.hbond>  (686) 


>  <PLP.part.metal>  (686) 


>  <PLP.part.nonpolar>  (686) 


>  <PLP.part.repulsive>  (686) 


>  <Version>  (686) 


$$$$
3686|Compound_257|Compounds_3D_F|sdf|72|dock10|1
     RDKit          3D

 19 20  0  0  0  0  0  0  0  0999 V2000
   -8.2117  -15.2693   11.7477 N   0  0  0  0  0  0  0  0  0  0  0  0
   -8.6531  -14.0528   12.1250 C   0  0  0  0  0  0  0  0  0  0  0  0
   -9.7989  -13.9134   12.5047 O   0  0  0  0  0  0  0  0  0  0  0  0
   -7.7428  -12.8900   12.0766 C   0  0  0  0  0  0  0  0  0  0  0  0
   -6.3801  -13.0404   12.3686 C   0  0  0  0  0  0  0  0  0  0  0  0
   -5.7247  -14.5899   12.7933 Cl  0  0  0  0  0  0  0  0  0  0  0  0
   -5.5698  -11.9171   12.3086 C   0  0  0  0  0  0  0  0  0  0  0  0
   -6.1249  -10.6997   11.9664 C   0  0  0  0  0  0  0  0  0  0  0  0
   -7.4126  -10.5884   11.6962 N   0  0  0  0  0  0  0  0  0  0  0  0
   -8.2233  -11.6253   11.7346 C   0  0  0  0  0  0  0  0  0  0  0  0
   -9.0683  -16.3628   11.7881 C   0  0  0  0  0  0  0  0  0  0  0  0
  -10.3086  -16.4584   12.2491 N   0  0  0  0  0  0  0  0  0  0  0  0
  -10.9521  -17.5418   12.2066 N   0  0  0  0  0  0  0  0  0  0  0  0
  -10.4361  -18.6462   11.7033 C   0  0  0  0  0  0  0  0  0  0  0  0
   -8.8182  -18.0445   11.2250 S   0  0  0  0  0  0  0  0  0  0  0  0
  -11.0370  -20.0212   11.5664 C   0  0  0  0  0  0  0  0  0  0  0  0
  -12.1640  -19.9578   10.7402 F   0  0  0  0  0  0  0  0  0  0  0  0
  -10.0939  -20.8870   11.0022 F   0  0  0  0  0  0  0  0  0  0  0  0
  -11.4101  -20.4957   12.8286 F   0  0  0  0  0  0  0  0  0  0  0  0
  1  2  1  0
  1 11  1  0
  2  3  2  0
  2  4  1  0
  4  5  2  0
  4 10  1  0
  5  6  1  0
  5  7  1  0
  7  8  2  0
  8  9  1  0
  9 10  2  0
 11 12  2  0
 11 15  1  0
 12 13  1  0
 13 14  2  0
 14 15  1  0
 14 16  1  0
 16 17  1  0
 16 18  1  0
 16 19  1  0
M  END
>  <Gold.Gold.Protein.RotatedWaterAtoms>  (687) 


>  <Gold.Id.Protein>  (687) 


>  <Gold.PLP.Chemscore.CHOScore>  (687) 
0.0000

>  <Gold.PLP.Chemscore.Hbond>  (687) 
1.9263

>  <Gold.PLP.Chemscore.Internal.Correction>  (687) 
0.0002

>  <Gold.PLP.Chemscore.Metal>  (687) 
0.0000

>  <Gold.PLP.Fitness>  (687) 
56.1851

>  <Gold.PLP.PLP>  (687) 
-51.4455

>  <Gold.PLP.ligand.clash>  (687) 
0.0000

>  <Gold.PLP.ligand.torsion>  (687) 
0.5197

>  <Gold.PLP.part.buried>  (687) 
-9.6335

>  <Gold.PLP.part.hbond>  (687) 
-3.4782

>  <Gold.PLP.part.metal>  (687) 
0.0000

>  <Gold.PLP.part.nonpolar>  (687) 
-38.9405

>  <Gold.PLP.part.repulsive>  (687) 
0.5923

>  <Gold.Protein.RotatedAtoms>  (687) 


>  <Gold.Protein.RotatedTorsions>  (687) 


>  <Gold.Protein.RotatedWaterAtoms>  (687) 


>  <Gold.Version>  (687) 
5.3.0

>  <PLP.Chemscore.CHOScore>  (687) 


>  <PLP.Chemscore.Hbond>  (687) 


>  <PLP.Chemscore.Internal.Correction>  (687) 


>  <PLP.Chemscore.Metal>  (687) 


>  <PLP.Fitness>  (687) 


>  <PLP.PLP>  (687) 


>  <PLP.ligand.clash>  (687) 


>  <PLP.ligand.torsion>  (687) 


>  <PLP.part.buried>  (687) 


>  <PLP.part.hbond>  (687) 


>  <PLP.part.metal>  (687) 


>  <PLP.part.nonpolar>  (687) 


>  <PLP.part.repulsive>  (687) 


>  <Version>  (687) 


$$$$
3687|Compound_266|Compounds_3D_F|sdf|77|dock10|1
     RDKit          3D

 19 20  0  0  0  0  0  0  0  0999 V2000
   -8.1876  -16.1847   11.6048 N   0  0  0  0  0  0  0  0  0  0  0  0
   -8.4742  -14.8755   11.4601 C   0  0  0  0  0  0  0  0  0  0  0  0
   -9.5542  -14.5354   11.0191 O   0  0  0  0  0  0  0  0  0  0  0  0
   -7.4745  -13.8552   11.8380 C   0  0  0  0  0  0  0  0  0  0  0  0
   -6.2558  -14.2337   12.4180 C   0  0  0  0  0  0  0  0  0  0  0  0
   -5.8866  -15.9041   12.7078 Cl  0  0  0  0  0  0  0  0  0  0  0  0
   -5.3530  -13.2366   12.7538 C   0  0  0  0  0  0  0  0  0  0  0  0
   -5.6797  -11.9163   12.5081 C   0  0  0  0  0  0  0  0  0  0  0  0
   -6.8355  -11.5908   11.9602 N   0  0  0  0  0  0  0  0  0  0  0  0
   -7.7248  -12.5000   11.6190 C   0  0  0  0  0  0  0  0  0  0  0  0
   -9.1277  -17.1476   11.2440 C   0  0  0  0  0  0  0  0  0  0  0  0
  -10.3275  -17.2660   11.7399 N   0  0  0  0  0  0  0  0  0  0  0  0
  -10.9548  -18.3662   11.1035 O   0  0  0  0  0  0  0  0  0  0  0  0
  -10.0310  -18.9064   10.1753 N   0  0  0  0  0  0  0  0  0  0  0  0
   -8.9395  -18.1959   10.2370 C   0  0  0  0  0  0  0  0  0  0  0  0
   -7.7864  -18.4036    9.4795 N   0  0  0  0  0  0  0  0  0  0  0  0
   -7.8428  -19.1449    8.3559 C   0  0  0  0  0  0  0  0  0  0  0  0
   -8.8962  -19.6318    8.0026 O   0  0  0  0  0  0  0  0  0  0  0  0
   -6.5971  -19.3689    7.5375 C   0  0  0  0  0  0  0  0  0  0  0  0
  1  2  1  0
  1 11  1  0
  2  3  2  0
  2  4  1  0
  4  5  2  0
  4 10  1  0
  5  6  1  0
  5  7  1  0
  7  8  2  0
  8  9  1  0
  9 10  2  0
 11 12  2  0
 11 15  1  0
 12 13  1  0
 13 14  1  0
 14 15  2  0
 15 16  1  0
 16 17  1  0
 17 18  2  0
 17 19  1  0
M  END
>  <Gold.Gold.Protein.RotatedWaterAtoms>  (688) 


>  <Gold.Id.Protein>  (688) 


>  <Gold.PLP.Chemscore.CHOScore>  (688) 
1.0000

>  <Gold.PLP.Chemscore.Hbond>  (688) 
1.5760

>  <Gold.PLP.Chemscore.Internal.Correction>  (688) 
0.0006

>  <Gold.PLP.Chemscore.Metal>  (688) 
0.0000

>  <Gold.PLP.Fitness>  (688) 
47.4911

>  <Gold.PLP.PLP>  (688) 
-41.0326

>  <Gold.PLP.ligand.clash>  (688) 
0.0000

>  <Gold.PLP.ligand.torsion>  (688) 
0.6351

>  <Gold.PLP.part.buried>  (688) 
-9.6317

>  <Gold.PLP.part.hbond>  (688) 
-2.5673

>  <Gold.PLP.part.metal>  (688) 
0.0000

>  <Gold.PLP.part.nonpolar>  (688) 
-29.9300

>  <Gold.PLP.part.repulsive>  (688) 
0.4205

>  <Gold.Protein.RotatedAtoms>  (688) 


>  <Gold.Protein.RotatedTorsions>  (688) 


>  <Gold.Protein.RotatedWaterAtoms>  (688) 


>  <Gold.Version>  (688) 
5.3.0

>  <PLP.Chemscore.CHOScore>  (688) 


>  <PLP.Chemscore.Hbond>  (688) 


>  <PLP.Chemscore.Internal.Correction>  (688) 


>  <PLP.Chemscore.Metal>  (688) 


>  <PLP.Fitness>  (688) 


>  <PLP.PLP>  (688) 


>  <PLP.ligand.clash>  (688) 


>  <PLP.ligand.torsion>  (688) 


>  <PLP.part.buried>  (688) 


>  <PLP.part.hbond>  (688) 


>  <PLP.part.metal>  (688) 


>  <PLP.part.nonpolar>  (688) 


>  <PLP.part.repulsive>  (688) 


>  <Version>  (688) 


$$$$
3688|Compound_267|Compounds_3D_F|sdf|78|dock10|1
     RDKit          3D

 18 19  0  0  0  0  0  0  0  0999 V2000
  -13.8997  -18.9831   12.8019 O   0  0  0  0  0  0  0  0  0  0  0  0
  -12.9028  -19.6269   12.1641 C   0  0  0  0  0  0  0  0  0  0  0  0
  -13.0354  -20.7938   11.8516 O   0  0  0  0  0  0  0  0  0  0  0  0
  -11.6495  -18.9151   11.8458 C   0  0  0  0  0  0  0  0  0  0  0  0
  -11.3484  -17.6805   12.1958 N   0  0  0  0  0  0  0  0  0  0  0  0
  -10.1402  -17.3653   11.7397 C   0  0  0  0  0  0  0  0  0  0  0  0
   -9.6440  -18.3946   11.0865 N   0  0  0  0  0  0  0  0  0  0  0  0
  -10.6049  -19.4169   11.1460 N   0  0  0  0  0  0  0  0  0  0  0  0
   -9.4991  -16.1360   11.9239 N   0  0  0  0  0  0  0  0  0  0  0  0
   -8.1534  -16.0683   11.9043 C   0  0  0  0  0  0  0  0  0  0  0  0
   -7.4967  -17.0757   11.7249 O   0  0  0  0  0  0  0  0  0  0  0  0
   -7.4766  -14.7704   12.0991 C   0  0  0  0  0  0  0  0  0  0  0  0
   -6.1032  -14.7165   12.3777 C   0  0  0  0  0  0  0  0  0  0  0  0
   -5.1618  -16.1700   12.5005 Cl  0  0  0  0  0  0  0  0  0  0  0  0
   -5.5176  -13.4732   12.5512 C   0  0  0  0  0  0  0  0  0  0  0  0
   -6.2974  -12.3376   12.4460 C   0  0  0  0  0  0  0  0  0  0  0  0
   -7.5881  -12.4190   12.1821 N   0  0  0  0  0  0  0  0  0  0  0  0
   -8.1910  -13.5755   12.0029 C   0  0  0  0  0  0  0  0  0  0  0  0
  1  2  1  0
  2  3  2  0
  2  4  1  0
  4  5  2  0
  4  8  1  0
  5  6  1  0
  6  7  2  0
  6  9  1  0
  7  8  1  0
  9 10  1  0
 10 11  2  0
 10 12  1  0
 12 13  2  0
 12 18  1  0
 13 14  1  0
 13 15  1  0
 15 16  2  0
 16 17  1  0
 17 18  2  0
M  END
>  <Gold.Gold.Protein.RotatedWaterAtoms>  (689) 


>  <Gold.Id.Protein>  (689) 


>  <Gold.PLP.Chemscore.CHOScore>  (689) 
0.0000

>  <Gold.PLP.Chemscore.Hbond>  (689) 
2.1992

>  <Gold.PLP.Chemscore.Internal.Correction>  (689) 
0.0001

>  <Gold.PLP.Chemscore.Metal>  (689) 
0.0000

>  <Gold.PLP.Fitness>  (689) 
49.3766

>  <Gold.PLP.PLP>  (689) 
-43.2708

>  <Gold.PLP.ligand.clash>  (689) 
0.0000

>  <Gold.PLP.ligand.torsion>  (689) 
0.2459

>  <Gold.PLP.part.buried>  (689) 
-8.0454

>  <Gold.PLP.part.hbond>  (689) 
-3.9260

>  <Gold.PLP.part.metal>  (689) 
0.0000

>  <Gold.PLP.part.nonpolar>  (689) 
-31.1001

>  <Gold.PLP.part.repulsive>  (689) 
0.3942

>  <Gold.Protein.RotatedAtoms>  (689) 


>  <Gold.Protein.RotatedTorsions>  (689) 


>  <Gold.Protein.RotatedWaterAtoms>  (689) 


>  <Gold.Version>  (689) 
5.3.0

>  <PLP.Chemscore.CHOScore>  (689) 


>  <PLP.Chemscore.Hbond>  (689) 


>  <PLP.Chemscore.Internal.Correction>  (689) 


>  <PLP.Chemscore.Metal>  (689) 


>  <PLP.Fitness>  (689) 


>  <PLP.PLP>  (689) 


>  <PLP.ligand.clash>  (689) 


>  <PLP.ligand.torsion>  (689) 


>  <PLP.part.buried>  (689) 


>  <PLP.part.hbond>  (689) 


>  <PLP.part.metal>  (689) 


>  <PLP.part.nonpolar>  (689) 


>  <PLP.part.repulsive>  (689) 


>  <Version>  (689) 


$$$$
3689|Compound_268|Compounds_3D_F|sdf|79|dock10|1
     RDKit          3D

 20 22  0  0  0  0  0  0  0  0999 V2000
  -11.5405  -18.5555   12.2808 O   0  0  0  0  0  0  0  0  0  0  0  0
  -10.3242  -18.1856   11.8162 C   0  0  0  0  0  0  0  0  0  0  0  0
   -9.4594  -19.1328   11.2337 C   0  0  0  0  0  0  0  0  0  0  0  0
   -9.5413  -20.4537   10.9969 N   0  0  0  0  0  0  0  0  0  0  0  0
   -8.4635  -20.8697   10.4302 N   0  0  0  0  0  0  0  0  0  0  0  0
   -7.5813  -19.7924   10.2606 N   0  0  0  0  0  0  0  0  0  0  0  0
   -8.2086  -18.6890   10.7681 C   0  0  0  0  0  0  0  0  0  0  0  0
   -7.8882  -17.4052   10.8915 N   0  0  0  0  0  0  0  0  0  0  0  0
   -8.7320  -16.5514   11.4451 C   0  0  0  0  0  0  0  0  0  0  0  0
   -9.9242  -16.9245   11.8935 N   0  0  0  0  0  0  0  0  0  0  0  0
   -8.3616  -15.2181   11.5565 N   0  0  0  0  0  0  0  0  0  0  0  0
   -7.1181  -14.8958   11.9629 C   0  0  0  0  0  0  0  0  0  0  0  0
   -6.3200  -15.7726   12.2309 O   0  0  0  0  0  0  0  0  0  0  0  0
   -6.7239  -13.4772   12.0812 C   0  0  0  0  0  0  0  0  0  0  0  0
   -7.6569  -12.4559   11.8537 C   0  0  0  0  0  0  0  0  0  0  0  0
   -9.2982  -12.8278   11.4272 Cl  0  0  0  0  0  0  0  0  0  0  0  0
   -7.2337  -11.1414   11.9776 C   0  0  0  0  0  0  0  0  0  0  0  0
   -5.9198  -10.8834   12.3191 C   0  0  0  0  0  0  0  0  0  0  0  0
   -5.0631  -11.8658   12.5273 N   0  0  0  0  0  0  0  0  0  0  0  0
   -5.4166  -13.1303   12.4269 C   0  0  0  0  0  0  0  0  0  0  0  0
  1  2  1  0
  2  3  2  0
  2 10  1  0
  3  4  1  0
  3  7  1  0
  4  5  2  0
  5  6  1  0
  6  7  1  0
  7  8  2  0
  8  9  1  0
  9 10  2  0
  9 11  1  0
 11 12  1  0
 12 13  2  0
 12 14  1  0
 14 15  2  0
 14 20  1  0
 15 16  1  0
 15 17  1  0
 17 18  2  0
 18 19  1  0
 19 20  2  0
M  END
>  <Gold.Gold.Protein.RotatedWaterAtoms>  (690) 


>  <Gold.Id.Protein>  (690) 


>  <Gold.PLP.Chemscore.CHOScore>  (690) 
1.2392

>  <Gold.PLP.Chemscore.Hbond>  (690) 
1.9920

>  <Gold.PLP.Chemscore.Internal.Correction>  (690) 
0.3976

>  <Gold.PLP.Chemscore.Metal>  (690) 
0.0000

>  <Gold.PLP.Fitness>  (690) 
54.4103

>  <Gold.PLP.PLP>  (690) 
-45.0408

>  <Gold.PLP.ligand.clash>  (690) 
0.0000

>  <Gold.PLP.ligand.torsion>  (690) 
0.3608

>  <Gold.PLP.part.buried>  (690) 
-12.0047

>  <Gold.PLP.part.hbond>  (690) 
-2.0000

>  <Gold.PLP.part.metal>  (690) 
0.0000

>  <Gold.PLP.part.nonpolar>  (690) 
-33.5485

>  <Gold.PLP.part.repulsive>  (690) 
0.9046

>  <Gold.Protein.RotatedAtoms>  (690) 


>  <Gold.Protein.RotatedTorsions>  (690) 


>  <Gold.Protein.RotatedWaterAtoms>  (690) 


>  <Gold.Version>  (690) 
5.3.0

>  <PLP.Chemscore.CHOScore>  (690) 


>  <PLP.Chemscore.Hbond>  (690) 


>  <PLP.Chemscore.Internal.Correction>  (690) 


>  <PLP.Chemscore.Metal>  (690) 


>  <PLP.Fitness>  (690) 


>  <PLP.PLP>  (690) 


>  <PLP.ligand.clash>  (690) 


>  <PLP.ligand.torsion>  (690) 


>  <PLP.part.buried>  (690) 


>  <PLP.part.hbond>  (690) 


>  <PLP.part.metal>  (690) 


>  <PLP.part.nonpolar>  (690) 


>  <PLP.part.repulsive>  (690) 


>  <Version>  (690) 


$$$$
3690|Compound_272|Compounds_3D_F|sdf|80|dock10|1
     RDKit          3D

 19 21  0  0  0  0  0  0  0  0999 V2000
   -9.9020  -16.4336   11.7020 N   0  0  0  0  0  0  0  0  0  0  0  0
   -8.5802  -16.2052   11.8353 C   0  0  0  0  0  0  0  0  0  0  0  0
   -7.8007  -17.1374   11.8435 O   0  0  0  0  0  0  0  0  0  0  0  0
   -8.0805  -14.8214   11.9710 C   0  0  0  0  0  0  0  0  0  0  0  0
   -6.7341  -14.5777   12.2756 C   0  0  0  0  0  0  0  0  0  0  0  0
   -5.6184  -15.8889   12.5000 Cl  0  0  0  0  0  0  0  0  0  0  0  0
   -6.3171  -13.2606   12.3917 C   0  0  0  0  0  0  0  0  0  0  0  0
   -7.2316  -12.2424   12.2061 C   0  0  0  0  0  0  0  0  0  0  0  0
   -8.4940  -12.5025   11.9198 N   0  0  0  0  0  0  0  0  0  0  0  0
   -8.9386  -13.7355   11.7931 C   0  0  0  0  0  0  0  0  0  0  0  0
  -10.3721  -17.7337   11.5795 C   0  0  0  0  0  0  0  0  0  0  0  0
  -11.3846  -18.1648   12.3238 N   0  0  0  0  0  0  0  0  0  0  0  0
  -11.8384  -19.4002   12.2132 C   0  0  0  0  0  0  0  0  0  0  0  0
  -11.3268  -20.2700   11.3712 N   0  0  0  0  0  0  0  0  0  0  0  0
  -10.3070  -19.9278   10.5815 C   0  0  0  0  0  0  0  0  0  0  0  0
   -9.7946  -18.6191   10.6635 C   0  0  0  0  0  0  0  0  0  0  0  0
   -8.7752  -18.5699    9.7513 N   0  0  0  0  0  0  0  0  0  0  0  0
   -8.6881  -19.7244    9.1849 N   0  0  0  0  0  0  0  0  0  0  0  0
   -9.5700  -20.5446    9.6414 N   0  0  0  0  0  0  0  0  0  0  0  0
  1  2  1  0
  1 11  1  0
  2  3  2  0
  2  4  1  0
  4  5  2  0
  4 10  1  0
  5  6  1  0
  5  7  1  0
  7  8  2  0
  8  9  1  0
  9 10  2  0
 11 12  2  0
 11 16  1  0
 12 13  1  0
 13 14  2  0
 14 15  1  0
 15 16  2  0
 15 19  1  0
 16 17  1  0
 17 18  1  0
 18 19  2  0
M  END
>  <Gold.Gold.Protein.RotatedWaterAtoms>  (691) 


>  <Gold.Id.Protein>  (691) 


>  <Gold.PLP.Chemscore.CHOScore>  (691) 
1.0000

>  <Gold.PLP.Chemscore.Hbond>  (691) 
1.8000

>  <Gold.PLP.Chemscore.Internal.Correction>  (691) 
0.2950

>  <Gold.PLP.Chemscore.Metal>  (691) 
0.0000

>  <Gold.PLP.Fitness>  (691) 
48.2996

>  <Gold.PLP.PLP>  (691) 
-40.5188

>  <Gold.PLP.ligand.clash>  (691) 
0.0000

>  <Gold.PLP.ligand.torsion>  (691) 
0.4571

>  <Gold.PLP.part.buried>  (691) 
-7.0219

>  <Gold.PLP.part.hbond>  (691) 
-1.7178

>  <Gold.PLP.part.metal>  (691) 
0.0000

>  <Gold.PLP.part.nonpolar>  (691) 
-30.9515

>  <Gold.PLP.part.repulsive>  (691) 
0.3294

>  <Gold.Protein.RotatedAtoms>  (691) 


>  <Gold.Protein.RotatedTorsions>  (691) 


>  <Gold.Protein.RotatedWaterAtoms>  (691) 


>  <Gold.Version>  (691) 
5.3.0

>  <PLP.Chemscore.CHOScore>  (691) 


>  <PLP.Chemscore.Hbond>  (691) 


>  <PLP.Chemscore.Internal.Correction>  (691) 


>  <PLP.Chemscore.Metal>  (691) 


>  <PLP.Fitness>  (691) 


>  <PLP.PLP>  (691) 


>  <PLP.ligand.clash>  (691) 


>  <PLP.ligand.torsion>  (691) 


>  <PLP.part.buried>  (691) 


>  <PLP.part.hbond>  (691) 


>  <PLP.part.metal>  (691) 


>  <PLP.part.nonpolar>  (691) 


>  <PLP.part.repulsive>  (691) 


>  <Version>  (691) 


$$$$
3691|Compound_285|Compounds_3D_F|sdf|87|dock10|1
     RDKit          3D

 19 20  0  0  0  0  0  0  0  0999 V2000
   -8.3942  -16.9425   11.4637 N   0  0  0  0  0  0  0  0  0  0  0  0
   -8.6725  -15.6978   11.9002 C   0  0  0  0  0  0  0  0  0  0  0  0
   -9.8197  -15.3837   12.1486 O   0  0  0  0  0  0  0  0  0  0  0  0
   -7.5799  -14.7143   12.0770 C   0  0  0  0  0  0  0  0  0  0  0  0
   -6.3155  -15.1113   11.9912 N   0  0  0  0  0  0  0  0  0  0  0  0
   -5.3172  -14.2701   12.1421 C   0  0  0  0  0  0  0  0  0  0  0  0
   -5.5473  -12.9276   12.3973 C   0  0  0  0  0  0  0  0  0  0  0  0
   -6.8520  -12.4687   12.4943 C   0  0  0  0  0  0  0  0  0  0  0  0
   -7.8868  -13.3766   12.3252 C   0  0  0  0  0  0  0  0  0  0  0  0
   -9.5401  -12.8585   12.4357 Cl  0  0  0  0  0  0  0  0  0  0  0  0
   -9.4226  -17.8667   11.2924 C   0  0  0  0  0  0  0  0  0  0  0  0
  -10.6593  -17.7117   11.6746 N   0  0  0  0  0  0  0  0  0  0  0  0
  -11.3766  -18.8789   11.3113 O   0  0  0  0  0  0  0  0  0  0  0  0
  -10.4675  -19.7577   10.6728 N   0  0  0  0  0  0  0  0  0  0  0  0
   -9.3008  -19.1761   10.6452 C   0  0  0  0  0  0  0  0  0  0  0  0
   -8.1340  -19.7127   10.0999 N   0  0  0  0  0  0  0  0  0  0  0  0
   -7.9305  -19.6697    8.7688 C   0  0  0  0  0  0  0  0  0  0  0  0
   -8.7622  -19.1652    8.0440 O   0  0  0  0  0  0  0  0  0  0  0  0
   -6.6699  -20.2491    8.1800 C   0  0  0  0  0  0  0  0  0  0  0  0
  1  2  1  0
  1 11  1  0
  2  3  2  0
  2  4  1  0
  4  5  2  0
  4  9  1  0
  5  6  1  0
  6  7  2  0
  7  8  1  0
  8  9  2  0
  9 10  1  0
 11 12  2  0
 11 15  1  0
 12 13  1  0
 13 14  1  0
 14 15  2  0
 15 16  1  0
 16 17  1  0
 17 18  2  0
 17 19  1  0
M  END
>  <Gold.Gold.Protein.RotatedWaterAtoms>  (692) 


>  <Gold.Id.Protein>  (692) 


>  <Gold.PLP.Chemscore.CHOScore>  (692) 
1.4777

>  <Gold.PLP.Chemscore.Hbond>  (692) 
1.6240

>  <Gold.PLP.Chemscore.Internal.Correction>  (692) 
0.0002

>  <Gold.PLP.Chemscore.Metal>  (692) 
0.0000

>  <Gold.PLP.Fitness>  (692) 
45.7165

>  <Gold.PLP.PLP>  (692) 
-37.9914

>  <Gold.PLP.ligand.clash>  (692) 
0.0000

>  <Gold.PLP.ligand.torsion>  (692) 
0.7901

>  <Gold.PLP.part.buried>  (692) 
-9.1415

>  <Gold.PLP.part.hbond>  (692) 
-2.4095

>  <Gold.PLP.part.metal>  (692) 
0.0000

>  <Gold.PLP.part.nonpolar>  (692) 
-26.4090

>  <Gold.PLP.part.repulsive>  (692) 
0.2814

>  <Gold.Protein.RotatedAtoms>  (692) 


>  <Gold.Protein.RotatedTorsions>  (692) 


>  <Gold.Protein.RotatedWaterAtoms>  (692) 


>  <Gold.Version>  (692) 
5.3.0

>  <PLP.Chemscore.CHOScore>  (692) 


>  <PLP.Chemscore.Hbond>  (692) 


>  <PLP.Chemscore.Internal.Correction>  (692) 


>  <PLP.Chemscore.Metal>  (692) 


>  <PLP.Fitness>  (692) 


>  <PLP.PLP>  (692) 


>  <PLP.ligand.clash>  (692) 


>  <PLP.ligand.torsion>  (692) 


>  <PLP.part.buried>  (692) 


>  <PLP.part.hbond>  (692) 


>  <PLP.part.metal>  (692) 


>  <PLP.part.nonpolar>  (692) 


>  <PLP.part.repulsive>  (692) 


>  <Version>  (692) 


$$$$
3692|Compound_286|Compounds_3D_F|sdf|88|dock10|1
     RDKit          3D

 28 30  0  0  0  0  0  0  0  0999 V2000
  -13.8667  -17.6965   12.8572 O   0  0  0  0  0  0  0  0  0  0  0  0
  -12.9068  -18.2240   12.0598 C   0  0  0  0  0  0  0  0  0  0  0  0
  -13.2316  -19.1794   11.0850 C   0  0  0  0  0  0  0  0  0  0  0  0
  -14.3804  -19.7801   10.6852 N   0  0  0  0  0  0  0  0  0  0  0  0
  -14.1212  -20.6090    9.7163 C   0  0  0  0  0  0  0  0  0  0  0  0
  -12.7872  -20.5916    9.4315 N   0  0  0  0  0  0  0  0  0  0  0  0
  -12.1959  -19.6935   10.2846 C   0  0  0  0  0  0  0  0  0  0  0  0
  -10.9553  -19.2612   10.4765 N   0  0  0  0  0  0  0  0  0  0  0  0
  -10.6940  -18.3600   11.4081 C   0  0  0  0  0  0  0  0  0  0  0  0
  -11.6419  -17.8453   12.1815 N   0  0  0  0  0  0  0  0  0  0  0  0
   -9.3833  -17.9323   11.5797 N   0  0  0  0  0  0  0  0  0  0  0  0
   -9.1215  -16.6252   11.7768 C   0  0  0  0  0  0  0  0  0  0  0  0
  -10.0313  -15.8202   11.8032 O   0  0  0  0  0  0  0  0  0  0  0  0
   -7.7241  -16.1700   11.9598 C   0  0  0  0  0  0  0  0  0  0  0  0
   -6.7345  -17.0538   11.9288 N   0  0  0  0  0  0  0  0  0  0  0  0
   -5.4801  -16.6913   12.0878 C   0  0  0  0  0  0  0  0  0  0  0  0
   -5.1440  -15.3628   12.2947 C   0  0  0  0  0  0  0  0  0  0  0  0
   -6.1444  -14.4059   12.3350 C   0  0  0  0  0  0  0  0  0  0  0  0
   -7.4585  -14.8157   12.1587 C   0  0  0  0  0  0  0  0  0  0  0  0
   -8.7539  -13.6601   12.1976 Cl  0  0  0  0  0  0  0  0  0  0  0  0
  -12.1100  -21.3866    8.4054 C   0  0  0  0  0  0  0  0  0  0  0  0
  -11.3046  -22.3872    9.0324 O   0  0  0  0  0  0  0  0  0  0  0  0
  -11.3510  -23.6607    8.3850 C   0  0  0  0  0  0  0  0  0  0  0  0
  -12.6689  -24.3583    8.7258 C   0  0  0  0  0  0  0  0  0  0  0  0
  -13.7771  -23.5888    8.1893 O   0  0  0  0  0  0  0  0  0  0  0  0
  -14.9927  -23.8287    8.7059 C   0  0  0  0  0  0  0  0  0  0  0  0
  -15.1077  -24.5412    9.6739 O   0  0  0  0  0  0  0  0  0  0  0  0
  -16.2134  -23.2077    8.0780 C   0  0  0  0  0  0  0  0  0  0  0  0
  1  2  1  0
  2  3  2  0
  2 10  1  0
  3  4  1  0
  3  7  1  0
  4  5  2  0
  5  6  1  0
  6  7  1  0
  6 21  1  0
  7  8  2  0
  8  9  1  0
  9 10  2  0
  9 11  1  0
 11 12  1  0
 12 13  2  0
 12 14  1  0
 14 15  2  0
 14 19  1  0
 15 16  1  0
 16 17  2  0
 17 18  1  0
 18 19  2  0
 19 20  1  0
 21 22  1  0
 22 23  1  0
 23 24  1  0
 24 25  1  0
 25 26  1  0
 26 27  2  0
 26 28  1  0
M  END
>  <Gold.Gold.Protein.RotatedWaterAtoms>  (693) 


>  <Gold.Id.Protein>  (693) 


>  <Gold.PLP.Chemscore.CHOScore>  (693) 
0.0000

>  <Gold.PLP.Chemscore.Hbond>  (693) 
3.4039

>  <Gold.PLP.Chemscore.Internal.Correction>  (693) 
0.5942

>  <Gold.PLP.Chemscore.Metal>  (693) 
0.0000

>  <Gold.PLP.Fitness>  (693) 
60.1943

>  <Gold.PLP.PLP>  (693) 
-51.2747

>  <Gold.PLP.ligand.clash>  (693) 
0.0000

>  <Gold.PLP.ligand.torsion>  (693) 
0.9431

>  <Gold.PLP.part.buried>  (693) 
-8.4845

>  <Gold.PLP.part.hbond>  (693) 
-2.7095

>  <Gold.PLP.part.metal>  (693) 
0.0000

>  <Gold.PLP.part.nonpolar>  (693) 
-40.2667

>  <Gold.PLP.part.repulsive>  (693) 
0.3053

>  <Gold.Protein.RotatedAtoms>  (693) 


>  <Gold.Protein.RotatedTorsions>  (693) 


>  <Gold.Protein.RotatedWaterAtoms>  (693) 


>  <Gold.Version>  (693) 
5.3.0

>  <PLP.Chemscore.CHOScore>  (693) 


>  <PLP.Chemscore.Hbond>  (693) 


>  <PLP.Chemscore.Internal.Correction>  (693) 


>  <PLP.Chemscore.Metal>  (693) 


>  <PLP.Fitness>  (693) 


>  <PLP.PLP>  (693) 


>  <PLP.ligand.clash>  (693) 


>  <PLP.ligand.torsion>  (693) 


>  <PLP.part.buried>  (693) 


>  <PLP.part.hbond>  (693) 


>  <PLP.part.metal>  (693) 


>  <PLP.part.nonpolar>  (693) 


>  <PLP.part.repulsive>  (693) 


>  <Version>  (693) 


$$$$
3693|Compound_287|Compounds_3D_F|sdf|89|dock10|1
     RDKit          3D

 29 32  0  0  0  0  0  0  0  0999 V2000
   -8.6296  -19.5831    7.8683 O   0  0  0  0  0  0  0  0  0  0  0  0
   -9.1006  -19.1043    9.0448 C   0  0  0  0  0  0  0  0  0  0  0  0
   -8.8681  -17.8493    9.4058 N   0  0  0  0  0  0  0  0  0  0  0  0
   -9.3255  -17.3701   10.5554 C   0  0  0  0  0  0  0  0  0  0  0  0
  -10.0286  -18.1081   11.3981 N   0  0  0  0  0  0  0  0  0  0  0  0
  -10.3064  -19.3758   11.1157 C   0  0  0  0  0  0  0  0  0  0  0  0
   -9.8481  -19.9234    9.9051 C   0  0  0  0  0  0  0  0  0  0  0  0
  -10.2635  -21.2131    9.8673 N   0  0  0  0  0  0  0  0  0  0  0  0
  -10.9317  -21.4847   10.9506 C   0  0  0  0  0  0  0  0  0  0  0  0
  -10.9900  -20.3815   11.7514 N   0  0  0  0  0  0  0  0  0  0  0  0
  -11.6535  -20.2896   13.0536 C   0  0  0  0  0  0  0  0  0  0  0  0
  -11.1573  -21.3132   13.9433 O   0  0  0  0  0  0  0  0  0  0  0  0
  -12.1738  -21.4589   14.9599 C   0  0  0  0  0  0  0  0  0  0  0  0
  -12.0398  -22.8152   15.6565 C   0  0  0  0  0  0  0  0  0  0  0  0
  -13.2412  -23.1007   16.3766 O   0  0  0  0  0  0  0  0  0  0  0  0
  -13.5121  -21.3755   14.1936 C   0  0  0  0  0  0  0  0  0  0  0  0
  -14.4878  -20.6718   14.9652 O   0  0  0  0  0  0  0  0  0  0  0  0
  -13.1634  -20.5851   12.9103 C   0  0  0  0  0  0  0  0  0  0  0  0
  -13.9113  -19.3697   12.8510 O   0  0  0  0  0  0  0  0  0  0  0  0
   -9.0546  -16.0484   10.8866 N   0  0  0  0  0  0  0  0  0  0  0  0
   -7.7996  -15.6791   11.2132 C   0  0  0  0  0  0  0  0  0  0  0  0
   -6.9057  -16.5033   11.2185 O   0  0  0  0  0  0  0  0  0  0  0  0
   -7.5105  -14.2715   11.5663 C   0  0  0  0  0  0  0  0  0  0  0  0
   -8.4143  -13.3311   11.3162 N   0  0  0  0  0  0  0  0  0  0  0  0
   -8.1963  -12.0684   11.6140 C   0  0  0  0  0  0  0  0  0  0  0  0
   -7.0072  -11.6696   12.2035 C   0  0  0  0  0  0  0  0  0  0  0  0
   -6.0355  -12.6173   12.4825 C   0  0  0  0  0  0  0  0  0  0  0  0
   -6.2932  -13.9435   12.1625 C   0  0  0  0  0  0  0  0  0  0  0  0
   -5.1125  -15.1734   12.4890 Cl  0  0  0  0  0  0  0  0  0  0  0  0
  1  2  1  0
  2  3  2  0
  2  7  1  0
  3  4  1  0
  4  5  2  0
  4 20  1  0
  5  6  1  0
  6  7  2  0
  6 10  1  0
  7  8  1  0
  8  9  2  0
  9 10  1  0
 10 11  1  0
 11 12  1  0
 11 18  1  0
 12 13  1  0
 13 14  1  0
 13 16  1  0
 14 15  1  0
 16 17  1  0
 16 18  1  0
 18 19  1  0
 20 21  1  0
 21 22  2  0
 21 23  1  0
 23 24  2  0
 23 28  1  0
 24 25  1  0
 25 26  2  0
 26 27  1  0
 27 28  2  0
 28 29  1  0
M  END
>  <Gold.Gold.Protein.RotatedWaterAtoms>  (694) 


>  <Gold.Id.Protein>  (694) 


>  <Gold.PLP.Chemscore.CHOScore>  (694) 
0.0000

>  <Gold.PLP.Chemscore.Hbond>  (694) 
2.7273

>  <Gold.PLP.Chemscore.Internal.Correction>  (694) 
0.4462

>  <Gold.PLP.Chemscore.Metal>  (694) 
0.0000

>  <Gold.PLP.Fitness>  (694) 
64.7850

>  <Gold.PLP.PLP>  (694) 
-57.8776

>  <Gold.PLP.ligand.clash>  (694) 
0.0000

>  <Gold.PLP.ligand.torsion>  (694) 
0.8603

>  <Gold.PLP.part.buried>  (694) 
-12.0898

>  <Gold.PLP.part.hbond>  (694) 
-4.5256

>  <Gold.PLP.part.metal>  (694) 
0.0000

>  <Gold.PLP.part.nonpolar>  (694) 
-41.5396

>  <Gold.PLP.part.repulsive>  (694) 
0.1479

>  <Gold.Protein.RotatedAtoms>  (694) 


>  <Gold.Protein.RotatedTorsions>  (694) 


>  <Gold.Protein.RotatedWaterAtoms>  (694) 


>  <Gold.Version>  (694) 
5.3.0

>  <PLP.Chemscore.CHOScore>  (694) 


>  <PLP.Chemscore.Hbond>  (694) 


>  <PLP.Chemscore.Internal.Correction>  (694) 


>  <PLP.Chemscore.Metal>  (694) 


>  <PLP.Fitness>  (694) 


>  <PLP.PLP>  (694) 


>  <PLP.ligand.clash>  (694) 


>  <PLP.ligand.torsion>  (694) 


>  <PLP.part.buried>  (694) 


>  <PLP.part.hbond>  (694) 


>  <PLP.part.metal>  (694) 


>  <PLP.part.nonpolar>  (694) 


>  <PLP.part.repulsive>  (694) 


>  <Version>  (694) 


$$$$
3694|Compound_294|Compounds_3D_F|sdf|92|dock10|1
     RDKit          3D

 19 21  0  0  0  0  0  0  0  0999 V2000
   -8.0527  -15.6656   11.3195 N   0  0  0  0  0  0  0  0  0  0  0  0
   -6.9163  -15.2791   11.9329 C   0  0  0  0  0  0  0  0  0  0  0  0
   -6.1610  -16.1124   12.3930 O   0  0  0  0  0  0  0  0  0  0  0  0
   -6.5890  -13.8395   12.0456 C   0  0  0  0  0  0  0  0  0  0  0  0
   -5.3612  -13.4678   12.3893 N   0  0  0  0  0  0  0  0  0  0  0  0
   -5.0305  -12.2008   12.5004 C   0  0  0  0  0  0  0  0  0  0  0  0
   -5.9560  -11.1976   12.2607 C   0  0  0  0  0  0  0  0  0  0  0  0
   -7.2498  -11.5398   11.8983 C   0  0  0  0  0  0  0  0  0  0  0  0
   -7.5706  -12.8842   11.7827 C   0  0  0  0  0  0  0  0  0  0  0  0
   -9.1748  -13.3715   11.3320 Cl  0  0  0  0  0  0  0  0  0  0  0  0
   -8.3624  -17.0142   11.2180 C   0  0  0  0  0  0  0  0  0  0  0  0
   -7.4650  -17.8869   10.7699 N   0  0  0  0  0  0  0  0  0  0  0  0
   -7.7505  -19.1726   10.6704 C   0  0  0  0  0  0  0  0  0  0  0  0
   -8.9224  -19.6657   11.0032 N   0  0  0  0  0  0  0  0  0  0  0  0
   -9.8867  -18.8663   11.4637 C   0  0  0  0  0  0  0  0  0  0  0  0
   -9.6235  -17.4892   11.5909 C   0  0  0  0  0  0  0  0  0  0  0  0
  -10.7792  -16.9417   12.0788 N   0  0  0  0  0  0  0  0  0  0  0  0
  -11.6405  -17.8891   12.2261 N   0  0  0  0  0  0  0  0  0  0  0  0
  -11.1539  -19.0306   11.8813 N   0  0  0  0  0  0  0  0  0  0  0  0
  1  2  1  0
  1 11  1  0
  2  3  2  0
  2  4  1  0
  4  5  2  0
  4  9  1  0
  5  6  1  0
  6  7  2  0
  7  8  1  0
  8  9  2  0
  9 10  1  0
 11 12  2  0
 11 16  1  0
 12 13  1  0
 13 14  2  0
 14 15  1  0
 15 16  2  0
 15 19  1  0
 16 17  1  0
 17 18  1  0
 18 19  2  0
M  END
>  <Gold.Gold.Protein.RotatedWaterAtoms>  (695) 


>  <Gold.Id.Protein>  (695) 


>  <Gold.PLP.Chemscore.CHOScore>  (695) 
1.6830

>  <Gold.PLP.Chemscore.Hbond>  (695) 
0.6000

>  <Gold.PLP.Chemscore.Internal.Correction>  (695) 
0.2950

>  <Gold.PLP.Chemscore.Metal>  (695) 
0.0000

>  <Gold.PLP.Fitness>  (695) 
51.1542

>  <Gold.PLP.PLP>  (695) 
-45.0539

>  <Gold.PLP.ligand.clash>  (695) 
0.0000

>  <Gold.PLP.ligand.torsion>  (695) 
0.5219

>  <Gold.PLP.part.buried>  (695) 
-9.0460

>  <Gold.PLP.part.hbond>  (695) 
-2.3496

>  <Gold.PLP.part.metal>  (695) 
0.0000

>  <Gold.PLP.part.nonpolar>  (695) 
-34.3615

>  <Gold.PLP.part.repulsive>  (695) 
0.5915

>  <Gold.Protein.RotatedAtoms>  (695) 


>  <Gold.Protein.RotatedTorsions>  (695) 


>  <Gold.Protein.RotatedWaterAtoms>  (695) 


>  <Gold.Version>  (695) 
5.3.0

>  <PLP.Chemscore.CHOScore>  (695) 


>  <PLP.Chemscore.Hbond>  (695) 


>  <PLP.Chemscore.Internal.Correction>  (695) 


>  <PLP.Chemscore.Metal>  (695) 


>  <PLP.Fitness>  (695) 


>  <PLP.PLP>  (695) 


>  <PLP.ligand.clash>  (695) 


>  <PLP.ligand.torsion>  (695) 


>  <PLP.part.buried>  (695) 


>  <PLP.part.hbond>  (695) 


>  <PLP.part.metal>  (695) 


>  <PLP.part.nonpolar>  (695) 


>  <PLP.part.repulsive>  (695) 


>  <Version>  (695) 


$$$$
3695|Compound_296|Compounds_3D_F|sdf|93|dock10|1
     RDKit          3D

 28 30  0  0  0  0  0  0  0  0999 V2000
  -13.9004  -17.7214   13.0221 O   0  0  0  0  0  0  0  0  0  0  0  0
  -13.0110  -18.2364   12.1393 C   0  0  0  0  0  0  0  0  0  0  0  0
  -13.4283  -19.1322   11.1434 C   0  0  0  0  0  0  0  0  0  0  0  0
  -14.6192  -19.6785   10.7914 N   0  0  0  0  0  0  0  0  0  0  0  0
  -14.4495  -20.4655    9.7692 C   0  0  0  0  0  0  0  0  0  0  0  0
  -13.1366  -20.4729    9.3988 N   0  0  0  0  0  0  0  0  0  0  0  0
  -12.4631  -19.6361   10.2533 C   0  0  0  0  0  0  0  0  0  0  0  0
  -11.1994  -19.2503   10.3839 N   0  0  0  0  0  0  0  0  0  0  0  0
  -10.8500  -18.4045   11.3384 C   0  0  0  0  0  0  0  0  0  0  0  0
  -11.7293  -17.9014   12.1959 N   0  0  0  0  0  0  0  0  0  0  0  0
   -9.5179  -18.0244   11.4440 N   0  0  0  0  0  0  0  0  0  0  0  0
   -9.2029  -16.7787   11.8500 C   0  0  0  0  0  0  0  0  0  0  0  0
  -10.0836  -15.9872   12.1226 O   0  0  0  0  0  0  0  0  0  0  0  0
   -7.7826  -16.3742   11.9625 C   0  0  0  0  0  0  0  0  0  0  0  0
   -6.8292  -17.2959   11.9066 N   0  0  0  0  0  0  0  0  0  0  0  0
   -5.5563  -16.9789   12.0033 C   0  0  0  0  0  0  0  0  0  0  0  0
   -5.1616  -15.6607   12.1680 C   0  0  0  0  0  0  0  0  0  0  0  0
   -6.1226  -14.6654   12.2322 C   0  0  0  0  0  0  0  0  0  0  0  0
   -7.4577  -15.0276   12.1218 C   0  0  0  0  0  0  0  0  0  0  0  0
   -8.7057  -13.8225   12.1933 Cl  0  0  0  0  0  0  0  0  0  0  0  0
  -12.5526  -21.2353    8.2938 C   0  0  0  0  0  0  0  0  0  0  0  0
  -11.2432  -21.8802    8.7540 C   0  0  0  0  0  0  0  0  0  0  0  0
  -10.1984  -20.9053    8.7340 O   0  0  0  0  0  0  0  0  0  0  0  0
   -8.9069  -21.4307    9.0463 C   0  0  0  0  0  0  0  0  0  0  0  0
   -7.6329  -20.4850    8.1488 P   0  0  0  0  0  0  0  0  0  0  0  0
   -8.2714  -19.3732    7.4097 O   0  0  0  0  0  0  0  0  0  0  0  0
   -6.5672  -19.8900    9.1989 O   0  0  0  0  0  0  0  0  0  0  0  0
   -6.8774  -21.4556    7.1090 O   0  0  0  0  0  0  0  0  0  0  0  0
  1  2  1  0
  2  3  2  0
  2 10  1  0
  3  4  1  0
  3  7  1  0
  4  5  2  0
  5  6  1  0
  6  7  1  0
  6 21  1  0
  7  8  2  0
  8  9  1  0
  9 10  2  0
  9 11  1  0
 11 12  1  0
 12 13  2  0
 12 14  1  0
 14 15  2  0
 14 19  1  0
 15 16  1  0
 16 17  2  0
 17 18  1  0
 18 19  2  0
 19 20  1  0
 21 22  1  0
 22 23  1  0
 23 24  1  0
 24 25  1  0
 25 26  2  0
 25 27  1  0
 25 28  1  0
M  END
>  <Gold.Gold.Protein.RotatedWaterAtoms>  (696) 


>  <Gold.Id.Protein>  (696) 


>  <Gold.PLP.Chemscore.CHOScore>  (696) 
0.0000

>  <Gold.PLP.Chemscore.Hbond>  (696) 
3.6205

>  <Gold.PLP.Chemscore.Internal.Correction>  (696) 
0.6443

>  <Gold.PLP.Chemscore.Metal>  (696) 
0.0000

>  <Gold.PLP.Fitness>  (696) 
56.2794

>  <Gold.PLP.PLP>  (696) 
-46.4299

>  <Gold.PLP.ligand.clash>  (696) 
0.0000

>  <Gold.PLP.ligand.torsion>  (696) 
0.8281

>  <Gold.PLP.part.buried>  (696) 
-7.8569

>  <Gold.PLP.part.hbond>  (696) 
-4.2924

>  <Gold.PLP.part.metal>  (696) 
0.0000

>  <Gold.PLP.part.nonpolar>  (696) 
-35.5413

>  <Gold.PLP.part.repulsive>  (696) 
0.2991

>  <Gold.Protein.RotatedAtoms>  (696) 


>  <Gold.Protein.RotatedTorsions>  (696) 


>  <Gold.Protein.RotatedWaterAtoms>  (696) 


>  <Gold.Version>  (696) 
5.3.0

>  <PLP.Chemscore.CHOScore>  (696) 


>  <PLP.Chemscore.Hbond>  (696) 


>  <PLP.Chemscore.Internal.Correction>  (696) 


>  <PLP.Chemscore.Metal>  (696) 


>  <PLP.Fitness>  (696) 


>  <PLP.PLP>  (696) 


>  <PLP.ligand.clash>  (696) 


>  <PLP.ligand.torsion>  (696) 


>  <PLP.part.buried>  (696) 


>  <PLP.part.hbond>  (696) 


>  <PLP.part.metal>  (696) 


>  <PLP.part.nonpolar>  (696) 


>  <PLP.part.repulsive>  (696) 


>  <Version>  (696) 


$$$$
3696|Compound_297|Compounds_3D_F|sdf|94|dock10|1
     RDKit          3D

 26 27  0  0  0  0  0  0  0  0999 V2000
   -7.8689  -17.2623   11.2793 N   0  0  0  0  0  0  0  0  0  0  0  0
   -8.3592  -16.0853   11.7167 C   0  0  0  0  0  0  0  0  0  0  0  0
   -9.5527  -15.9571   11.9053 O   0  0  0  0  0  0  0  0  0  0  0  0
   -7.4431  -14.9494   11.9672 C   0  0  0  0  0  0  0  0  0  0  0  0
   -6.1298  -15.1341   11.8970 N   0  0  0  0  0  0  0  0  0  0  0  0
   -5.2832  -14.1524   12.1126 C   0  0  0  0  0  0  0  0  0  0  0  0
   -5.7315  -12.8782   12.4227 C   0  0  0  0  0  0  0  0  0  0  0  0
   -7.0947  -12.6396   12.5058 C   0  0  0  0  0  0  0  0  0  0  0  0
   -7.9662  -13.6920   12.2680 C   0  0  0  0  0  0  0  0  0  0  0  0
   -9.6832  -13.4518   12.3591 Cl  0  0  0  0  0  0  0  0  0  0  0  0
   -8.7325  -18.3316   11.0382 C   0  0  0  0  0  0  0  0  0  0  0  0
   -9.8494  -18.4405   11.7390 N   0  0  0  0  0  0  0  0  0  0  0  0
  -10.6985  -19.4373   11.5444 C   0  0  0  0  0  0  0  0  0  0  0  0
  -11.8651  -19.5099   12.3088 N   0  0  0  0  0  0  0  0  0  0  0  0
  -12.0379  -20.5224   13.1813 C   0  0  0  0  0  0  0  0  0  0  0  0
  -11.1797  -21.3707   13.3024 O   0  0  0  0  0  0  0  0  0  0  0  0
  -13.2967  -20.6008   14.0055 C   0  0  0  0  0  0  0  0  0  0  0  0
  -10.4415  -20.4150   10.5833 C   0  0  0  0  0  0  0  0  0  0  0  0
  -11.5791  -21.7370   10.3305 S   0  0  0  0  0  0  0  0  0  0  0  0
  -12.8883  -20.8585    9.4405 C   0  0  0  0  0  0  0  0  0  0  0  0
  -13.7098  -20.3073    8.8817 N   0  0  0  0  0  0  0  0  0  0  0  0
   -9.2774  -20.3337    9.8276 C   0  0  0  0  0  0  0  0  0  0  0  0
   -8.4113  -19.2699   10.0567 C   0  0  0  0  0  0  0  0  0  0  0  0
   -6.9230  -19.1158    9.1277 S   0  0  0  0  0  0  0  0  0  0  0  0
   -7.6037  -19.0294    7.4530 C   0  0  0  0  0  0  0  0  0  0  0  0
   -8.0312  -18.9752    6.4019 N   0  0  0  0  0  0  0  0  0  0  0  0
  1  2  1  0
  1 11  1  0
  2  3  2  0
  2  4  1  0
  4  5  2  0
  4  9  1  0
  5  6  1  0
  6  7  2  0
  7  8  1  0
  8  9  2  0
  9 10  1  0
 11 12  2  0
 11 23  1  0
 12 13  1  0
 13 14  1  0
 13 18  2  0
 14 15  1  0
 15 16  2  0
 15 17  1  0
 18 19  1  0
 18 22  1  0
 19 20  1  0
 20 21  3  0
 22 23  2  0
 23 24  1  0
 24 25  1  0
 25 26  3  0
M  END
>  <Gold.Gold.Protein.RotatedWaterAtoms>  (697) 


>  <Gold.Id.Protein>  (697) 


>  <Gold.PLP.Chemscore.CHOScore>  (697) 
1.7298

>  <Gold.PLP.Chemscore.Hbond>  (697) 
1.6560

>  <Gold.PLP.Chemscore.Internal.Correction>  (697) 
0.8059

>  <Gold.PLP.Chemscore.Metal>  (697) 
0.0000

>  <Gold.PLP.Fitness>  (697) 
56.4525

>  <Gold.PLP.PLP>  (697) 
-47.5323

>  <Gold.PLP.ligand.clash>  (697) 
0.0000

>  <Gold.PLP.ligand.torsion>  (697) 
1.0215

>  <Gold.PLP.part.buried>  (697) 
-7.8789

>  <Gold.PLP.part.hbond>  (697) 
-2.0000

>  <Gold.PLP.part.metal>  (697) 
0.0000

>  <Gold.PLP.part.nonpolar>  (697) 
-37.5114

>  <Gold.PLP.part.repulsive>  (697) 
0.4370

>  <Gold.Protein.RotatedAtoms>  (697) 


>  <Gold.Protein.RotatedTorsions>  (697) 


>  <Gold.Protein.RotatedWaterAtoms>  (697) 


>  <Gold.Version>  (697) 
5.3.0

>  <PLP.Chemscore.CHOScore>  (697) 


>  <PLP.Chemscore.Hbond>  (697) 


>  <PLP.Chemscore.Internal.Correction>  (697) 


>  <PLP.Chemscore.Metal>  (697) 


>  <PLP.Fitness>  (697) 


>  <PLP.PLP>  (697) 


>  <PLP.ligand.clash>  (697) 


>  <PLP.ligand.torsion>  (697) 


>  <PLP.part.buried>  (697) 


>  <PLP.part.hbond>  (697) 


>  <PLP.part.metal>  (697) 


>  <PLP.part.nonpolar>  (697) 


>  <PLP.part.repulsive>  (697) 


>  <Version>  (697) 


$$$$
3697|Compound_316|Compounds_3D_F|sdf|96|dock10|1
     RDKit          3D

 27 29  0  0  0  0  0  0  0  0999 V2000
   -9.6983  -19.9835    8.3167 O   0  0  0  0  0  0  0  0  0  0  0  0
  -10.0181  -19.2205    9.3867 C   0  0  0  0  0  0  0  0  0  0  0  0
  -11.2947  -19.3241    9.9966 C   0  0  0  0  0  0  0  0  0  0  0  0
  -12.2220  -20.1675    9.5482 N   0  0  0  0  0  0  0  0  0  0  0  0
  -13.3904  -20.2271   10.1480 C   0  0  0  0  0  0  0  0  0  0  0  0
  -13.6674  -19.4158   11.2481 C   0  0  0  0  0  0  0  0  0  0  0  0
  -12.7658  -18.5754   11.7081 N   0  0  0  0  0  0  0  0  0  0  0  0
  -11.5721  -18.4986   11.1147 C   0  0  0  0  0  0  0  0  0  0  0  0
  -10.6226  -17.6592   11.5459 N   0  0  0  0  0  0  0  0  0  0  0  0
   -9.4522  -17.6045   10.9411 C   0  0  0  0  0  0  0  0  0  0  0  0
   -9.1476  -18.3640    9.8921 N   0  0  0  0  0  0  0  0  0  0  0  0
   -8.4970  -16.7211   11.4205 N   0  0  0  0  0  0  0  0  0  0  0  0
   -8.6193  -15.4002   11.1808 C   0  0  0  0  0  0  0  0  0  0  0  0
   -9.5665  -14.9844   10.5437 O   0  0  0  0  0  0  0  0  0  0  0  0
   -7.5995  -14.4576   11.6928 C   0  0  0  0  0  0  0  0  0  0  0  0
   -7.7929  -13.1498   11.5731 N   0  0  0  0  0  0  0  0  0  0  0  0
   -6.9115  -12.2785   12.0151 C   0  0  0  0  0  0  0  0  0  0  0  0
   -5.7405  -12.6972   12.6268 C   0  0  0  0  0  0  0  0  0  0  0  0
   -5.4972  -14.0536   12.7730 C   0  0  0  0  0  0  0  0  0  0  0  0
   -6.4465  -14.9509   12.3027 C   0  0  0  0  0  0  0  0  0  0  0  0
   -6.1960  -16.6607   12.4603 Cl  0  0  0  0  0  0  0  0  0  0  0  0
  -14.4411  -21.1805    9.6410 C   0  0  0  0  0  0  0  0  0  0  0  0
  -14.6407  -22.2231   10.5981 O   0  0  0  0  0  0  0  0  0  0  0  0
  -13.9823  -21.7876    8.3132 C   0  0  0  0  0  0  0  0  0  0  0  0
  -13.9499  -20.7702    7.3099 O   0  0  0  0  0  0  0  0  0  0  0  0
  -14.9560  -22.8893    7.8921 C   0  0  0  0  0  0  0  0  0  0  0  0
  -16.0056  -22.3224    7.1053 O   0  0  0  0  0  0  0  0  0  0  0  0
  1  2  1  0
  2  3  2  0
  2 11  1  0
  3  4  1  0
  3  8  1  0
  4  5  2  0
  5  6  1  0
  5 22  1  0
  6  7  2  0
  7  8  1  0
  8  9  2  0
  9 10  1  0
 10 11  2  0
 10 12  1  0
 12 13  1  0
 13 14  2  0
 13 15  1  0
 15 16  2  0
 15 20  1  0
 16 17  1  0
 17 18  2  0
 18 19  1  0
 19 20  2  0
 20 21  1  0
 22 23  1  0
 22 24  1  0
 24 25  1  0
 24 26  1  0
 26 27  1  0
M  END
>  <Gold.Gold.Protein.RotatedWaterAtoms>  (698) 


>  <Gold.Id.Protein>  (698) 


>  <Gold.PLP.Chemscore.CHOScore>  (698) 
1.0000

>  <Gold.PLP.Chemscore.Hbond>  (698) 
3.5993

>  <Gold.PLP.Chemscore.Internal.Correction>  (698) 
0.4610

>  <Gold.PLP.Chemscore.Metal>  (698) 
0.0000

>  <Gold.PLP.Fitness>  (698) 
66.7866

>  <Gold.PLP.PLP>  (698) 
-55.0971

>  <Gold.PLP.ligand.clash>  (698) 
0.0000

>  <Gold.PLP.ligand.torsion>  (698) 
1.2846

>  <Gold.PLP.part.buried>  (698) 
-6.2210

>  <Gold.PLP.part.hbond>  (698) 
-7.0994

>  <Gold.PLP.part.metal>  (698) 
0.0000

>  <Gold.PLP.part.nonpolar>  (698) 
-42.3127

>  <Gold.PLP.part.repulsive>  (698) 
0.5442

>  <Gold.Protein.RotatedAtoms>  (698) 


>  <Gold.Protein.RotatedTorsions>  (698) 


>  <Gold.Protein.RotatedWaterAtoms>  (698) 


>  <Gold.Version>  (698) 
5.3.0

>  <PLP.Chemscore.CHOScore>  (698) 


>  <PLP.Chemscore.Hbond>  (698) 


>  <PLP.Chemscore.Internal.Correction>  (698) 


>  <PLP.Chemscore.Metal>  (698) 


>  <PLP.Fitness>  (698) 


>  <PLP.PLP>  (698) 


>  <PLP.ligand.clash>  (698) 


>  <PLP.ligand.torsion>  (698) 


>  <PLP.part.buried>  (698) 


>  <PLP.part.hbond>  (698) 


>  <PLP.part.metal>  (698) 


>  <PLP.part.nonpolar>  (698) 


>  <PLP.part.repulsive>  (698) 


>  <Version>  (698) 


$$$$
3698|Compound_350|Compounds_3D_F|sdf|106|dock10|1
     RDKit          3D

 19 21  0  0  0  0  0  0  0  0999 V2000
   -7.9802  -16.1177   11.6845 N   0  0  0  0  0  0  0  0  0  0  0  0
   -8.5141  -14.8824   11.7614 C   0  0  0  0  0  0  0  0  0  0  0  0
   -9.7178  -14.7351   11.6834 O   0  0  0  0  0  0  0  0  0  0  0  0
   -7.6337  -13.7056   11.9411 C   0  0  0  0  0  0  0  0  0  0  0  0
   -6.2933  -13.8604   12.3090 C   0  0  0  0  0  0  0  0  0  0  0  0
   -5.6256  -15.4426   12.5638 Cl  0  0  0  0  0  0  0  0  0  0  0  0
   -5.5065  -12.7330   12.4660 C   0  0  0  0  0  0  0  0  0  0  0  0
   -6.0062  -11.5286   12.2736 N   0  0  0  0  0  0  0  0  0  0  0  0
   -7.2639  -11.3391   11.9264 C   0  0  0  0  0  0  0  0  0  0  0  0
   -8.1182  -12.4088   11.7423 C   0  0  0  0  0  0  0  0  0  0  0  0
   -8.8053  -17.2201   11.5111 C   0  0  0  0  0  0  0  0  0  0  0  0
  -10.0663  -17.1994   11.9287 N   0  0  0  0  0  0  0  0  0  0  0  0
  -10.8584  -18.2439   11.7672 C   0  0  0  0  0  0  0  0  0  0  0  0
  -10.4574  -19.3544   11.1901 N   0  0  0  0  0  0  0  0  0  0  0  0
   -9.2071  -19.4685   10.7380 C   0  0  0  0  0  0  0  0  0  0  0  0
   -8.3298  -18.3774   10.8857 C   0  0  0  0  0  0  0  0  0  0  0  0
   -7.1446  -18.7868   10.3367 N   0  0  0  0  0  0  0  0  0  0  0  0
   -7.2971  -19.9924    9.9074 N   0  0  0  0  0  0  0  0  0  0  0  0
   -8.4913  -20.4248   10.1210 N   0  0  0  0  0  0  0  0  0  0  0  0
  1  2  1  0
  1 11  1  0
  2  3  2  0
  2  4  1  0
  4  5  2  0
  4 10  1  0
  5  6  1  0
  5  7  1  0
  7  8  2  0
  8  9  1  0
  9 10  2  0
 11 12  2  0
 11 16  1  0
 12 13  1  0
 13 14  2  0
 14 15  1  0
 15 16  2  0
 15 19  1  0
 16 17  1  0
 17 18  1  0
 18 19  2  0
M  END
>  <Gold.Gold.Protein.RotatedWaterAtoms>  (699) 


>  <Gold.Id.Protein>  (699) 


>  <Gold.PLP.Chemscore.CHOScore>  (699) 
1.0000

>  <Gold.PLP.Chemscore.Hbond>  (699) 
0.9120

>  <Gold.PLP.Chemscore.Internal.Correction>  (699) 
0.2950

>  <Gold.PLP.Chemscore.Metal>  (699) 
0.0000

>  <Gold.PLP.Fitness>  (699) 
50.8428

>  <Gold.PLP.PLP>  (699) 
-45.2854

>  <Gold.PLP.ligand.clash>  (699) 
0.0000

>  <Gold.PLP.ligand.torsion>  (699) 
0.2368

>  <Gold.PLP.part.buried>  (699) 
-10.7112

>  <Gold.PLP.part.hbond>  (699) 
-1.1273

>  <Gold.PLP.part.metal>  (699) 
0.0000

>  <Gold.PLP.part.nonpolar>  (699) 
-34.4248

>  <Gold.PLP.part.repulsive>  (699) 
0.5396

>  <Gold.Protein.RotatedAtoms>  (699) 


>  <Gold.Protein.RotatedTorsions>  (699) 


>  <Gold.Protein.RotatedWaterAtoms>  (699) 


>  <Gold.Version>  (699) 
5.3.0

>  <PLP.Chemscore.CHOScore>  (699) 


>  <PLP.Chemscore.Hbond>  (699) 


>  <PLP.Chemscore.Internal.Correction>  (699) 


>  <PLP.Chemscore.Metal>  (699) 


>  <PLP.Fitness>  (699) 


>  <PLP.PLP>  (699) 


>  <PLP.ligand.clash>  (699) 


>  <PLP.ligand.torsion>  (699) 


>  <PLP.part.buried>  (699) 


>  <PLP.part.hbond>  (699) 


>  <PLP.part.metal>  (699) 


>  <PLP.part.nonpolar>  (699) 


>  <PLP.part.repulsive>  (699) 


>  <Version>  (699) 


$$$$
3699|Compound_390|Compounds_3D_F|sdf|114|dock10|1
     RDKit          3D

 28 30  0  0  0  0  0  0  0  0999 V2000
  -11.7564  -18.6465   12.4573 O   0  0  0  0  0  0  0  0  0  0  0  0
  -10.5867  -18.2749   11.8834 C   0  0  0  0  0  0  0  0  0  0  0  0
   -9.8246  -19.1969   11.1502 C   0  0  0  0  0  0  0  0  0  0  0  0
   -9.9660  -20.5070   10.8275 N   0  0  0  0  0  0  0  0  0  0  0  0
   -8.9492  -20.8887   10.1111 C   0  0  0  0  0  0  0  0  0  0  0  0
   -8.0899  -19.8453    9.9270 N   0  0  0  0  0  0  0  0  0  0  0  0
   -8.6187  -18.7574   10.5756 C   0  0  0  0  0  0  0  0  0  0  0  0
   -8.2443  -17.4951   10.7458 N   0  0  0  0  0  0  0  0  0  0  0  0
   -8.9933  -16.6601   11.4459 C   0  0  0  0  0  0  0  0  0  0  0  0
  -10.1404  -17.0317   11.9996 N   0  0  0  0  0  0  0  0  0  0  0  0
   -8.5675  -15.3463   11.6015 N   0  0  0  0  0  0  0  0  0  0  0  0
   -7.2633  -15.0820   11.8136 C   0  0  0  0  0  0  0  0  0  0  0  0
   -6.4600  -15.9919   11.8696 O   0  0  0  0  0  0  0  0  0  0  0  0
   -6.8097  -13.6834   11.9800 C   0  0  0  0  0  0  0  0  0  0  0  0
   -7.6855  -12.6122   11.7675 C   0  0  0  0  0  0  0  0  0  0  0  0
   -9.3325  -12.9000   11.3000 Cl  0  0  0  0  0  0  0  0  0  0  0  0
   -7.2187  -11.3209   11.9366 C   0  0  0  0  0  0  0  0  0  0  0  0
   -5.9699  -11.0943   12.2908 N   0  0  0  0  0  0  0  0  0  0  0  0
   -5.1131  -12.0744   12.5017 C   0  0  0  0  0  0  0  0  0  0  0  0
   -5.4952  -13.3941   12.3615 C   0  0  0  0  0  0  0  0  0  0  0  0
   -6.8332  -19.8797    9.1760 C   0  0  0  0  0  0  0  0  0  0  0  0
   -5.7478  -19.5581   10.0486 O   0  0  0  0  0  0  0  0  0  0  0  0
   -4.4972  -20.1246    9.6541 C   0  0  0  0  0  0  0  0  0  0  0  0
   -3.5736  -19.0177    9.1430 C   0  0  0  0  0  0  0  0  0  0  0  0
   -2.2104  -19.2947    9.5578 O   0  0  0  0  0  0  0  0  0  0  0  0
   -1.5306  -18.2883   10.1300 C   0  0  0  0  0  0  0  0  0  0  0  0
   -2.0701  -17.2233   10.3157 O   0  0  0  0  0  0  0  0  0  0  0  0
   -0.0942  -18.4860   10.5395 C   0  0  0  0  0  0  0  0  0  0  0  0
  1  2  1  0
  2  3  2  0
  2 10  1  0
  3  4  1  0
  3  7  1  0
  4  5  2  0
  5  6  1  0
  6  7  1  0
  6 21  1  0
  7  8  2  0
  8  9  1  0
  9 10  2  0
  9 11  1  0
 11 12  1  0
 12 13  2  0
 12 14  1  0
 14 15  2  0
 14 20  1  0
 15 16  1  0
 15 17  1  0
 17 18  2  0
 18 19  1  0
 19 20  2  0
 21 22  1  0
 22 23  1  0
 23 24  1  0
 24 25  1  0
 25 26  1  0
 26 27  2  0
 26 28  1  0
M  END
>  <Gold.Gold.Protein.RotatedWaterAtoms>  (700) 


>  <Gold.Id.Protein>  (700) 


>  <Gold.PLP.Chemscore.CHOScore>  (700) 
1.4568

>  <Gold.PLP.Chemscore.Hbond>  (700) 
2.8420

>  <Gold.PLP.Chemscore.Internal.Correction>  (700) 
0.7241

>  <Gold.PLP.Chemscore.Metal>  (700) 
0.0000

>  <Gold.PLP.Fitness>  (700) 
65.5827

>  <Gold.PLP.PLP>  (700) 
-54.8477

>  <Gold.PLP.ligand.clash>  (700) 
0.0000

>  <Gold.PLP.ligand.torsion>  (700) 
1.4427

>  <Gold.PLP.part.buried>  (700) 
-10.2701

>  <Gold.PLP.part.hbond>  (700) 
-3.0552

>  <Gold.PLP.part.metal>  (700) 
0.0000

>  <Gold.PLP.part.nonpolar>  (700) 
-41.5345

>  <Gold.PLP.part.repulsive>  (700) 
0.5872

>  <Gold.Protein.RotatedAtoms>  (700) 


>  <Gold.Protein.RotatedTorsions>  (700) 


>  <Gold.Protein.RotatedWaterAtoms>  (700) 


>  <Gold.Version>  (700) 
5.3.0

>  <PLP.Chemscore.CHOScore>  (700) 


>  <PLP.Chemscore.Hbond>  (700) 


>  <PLP.Chemscore.Internal.Correction>  (700) 


>  <PLP.Chemscore.Metal>  (700) 


>  <PLP.Fitness>  (700) 


>  <PLP.PLP>  (700) 


>  <PLP.ligand.clash>  (700) 


>  <PLP.ligand.torsion>  (700) 


>  <PLP.part.buried>  (700) 


>  <PLP.part.hbond>  (700) 


>  <PLP.part.metal>  (700) 


>  <PLP.part.nonpolar>  (700) 


>  <PLP.part.repulsive>  (700) 


>  <Version>  (700) 


$$$$
3700|Compound_401|Compounds_3D_F|sdf|115|dock10|1
     RDKit          3D

 28 30  0  0  0  0  0  0  0  0999 V2000
   -9.2772  -12.7920   12.2840 O   0  0  0  0  0  0  0  0  0  0  0  0
   -8.7062  -14.0067   12.1000 C   0  0  0  0  0  0  0  0  0  0  0  0
   -7.3185  -14.1716   12.2258 C   0  0  0  0  0  0  0  0  0  0  0  0
   -6.2832  -13.3444   12.5162 N   0  0  0  0  0  0  0  0  0  0  0  0
   -5.1719  -14.0211   12.5050 C   0  0  0  0  0  0  0  0  0  0  0  0
   -5.4244  -15.3283   12.2075 N   0  0  0  0  0  0  0  0  0  0  0  0
   -6.7788  -15.4545   12.0245 C   0  0  0  0  0  0  0  0  0  0  0  0
   -7.5939  -16.4583   11.7237 N   0  0  0  0  0  0  0  0  0  0  0  0
   -8.8962  -16.2574   11.6139 C   0  0  0  0  0  0  0  0  0  0  0  0
   -9.4471  -15.0650   11.8015 N   0  0  0  0  0  0  0  0  0  0  0  0
   -9.7168  -17.3336   11.2978 N   0  0  0  0  0  0  0  0  0  0  0  0
  -10.8950  -17.4909   11.9324 C   0  0  0  0  0  0  0  0  0  0  0  0
  -11.2395  -16.6928   12.7814 O   0  0  0  0  0  0  0  0  0  0  0  0
  -11.7687  -18.6370   11.5965 C   0  0  0  0  0  0  0  0  0  0  0  0
  -11.2299  -19.8370   11.1174 C   0  0  0  0  0  0  0  0  0  0  0  0
   -9.5159  -20.0100   10.9033 Cl  0  0  0  0  0  0  0  0  0  0  0  0
  -12.0844  -20.8831   10.8179 C   0  0  0  0  0  0  0  0  0  0  0  0
  -13.3865  -20.7594   10.9772 N   0  0  0  0  0  0  0  0  0  0  0  0
  -13.9343  -19.6471   11.4267 C   0  0  0  0  0  0  0  0  0  0  0  0
  -13.1561  -18.5548   11.7558 C   0  0  0  0  0  0  0  0  0  0  0  0
   -4.4323  -16.4002   12.1019 C   0  0  0  0  0  0  0  0  0  0  0  0
   -5.1479  -17.7421   11.9298 C   0  0  0  0  0  0  0  0  0  0  0  0
   -4.8384  -18.2857   10.6458 O   0  0  0  0  0  0  0  0  0  0  0  0
   -5.7095  -17.8440    9.6018 C   0  0  0  0  0  0  0  0  0  0  0  0
   -4.8506  -16.6023    8.5799 P   0  0  0  0  0  0  0  0  0  0  0  0
   -4.8263  -17.0533    7.1705 O   0  0  0  0  0  0  0  0  0  0  0  0
   -5.6280  -15.1959    8.6793 O   0  0  0  0  0  0  0  0  0  0  0  0
   -3.3424  -16.4202    9.1109 O   0  0  0  0  0  0  0  0  0  0  0  0
  1  2  1  0
  2  3  2  0
  2 10  1  0
  3  4  1  0
  3  7  1  0
  4  5  2  0
  5  6  1  0
  6  7  1  0
  6 21  1  0
  7  8  2  0
  8  9  1  0
  9 10  2  0
  9 11  1  0
 11 12  1  0
 12 13  2  0
 12 14  1  0
 14 15  2  0
 14 20  1  0
 15 16  1  0
 15 17  1  0
 17 18  2  0
 18 19  1  0
 19 20  2  0
 21 22  1  0
 22 23  1  0
 23 24  1  0
 24 25  1  0
 25 26  2  0
 25 27  1  0
 25 28  1  0
M  END
>  <Gold.Gold.Protein.RotatedWaterAtoms>  (701) 


>  <Gold.Id.Protein>  (701) 


>  <Gold.PLP.Chemscore.CHOScore>  (701) 
2.0000

>  <Gold.PLP.Chemscore.Hbond>  (701) 
4.3192

>  <Gold.PLP.Chemscore.Internal.Correction>  (701) 
0.6030

>  <Gold.PLP.Chemscore.Metal>  (701) 
0.0000

>  <Gold.PLP.Fitness>  (701) 
64.5676

>  <Gold.PLP.PLP>  (701) 
-48.1548

>  <Gold.PLP.ligand.clash>  (701) 
0.0000

>  <Gold.PLP.ligand.torsion>  (701) 
1.5739

>  <Gold.PLP.part.buried>  (701) 
-0.6158

>  <Gold.PLP.part.hbond>  (701) 
-7.5794

>  <Gold.PLP.part.metal>  (701) 
0.0000

>  <Gold.PLP.part.nonpolar>  (701) 
-40.0304

>  <Gold.PLP.part.repulsive>  (701) 
1.2733

>  <Gold.Protein.RotatedAtoms>  (701) 


>  <Gold.Protein.RotatedTorsions>  (701) 


>  <Gold.Protein.RotatedWaterAtoms>  (701) 


>  <Gold.Version>  (701) 
5.3.0

>  <PLP.Chemscore.CHOScore>  (701) 


>  <PLP.Chemscore.Hbond>  (701) 


>  <PLP.Chemscore.Internal.Correction>  (701) 


>  <PLP.Chemscore.Metal>  (701) 


>  <PLP.Fitness>  (701) 


>  <PLP.PLP>  (701) 


>  <PLP.ligand.clash>  (701) 


>  <PLP.ligand.torsion>  (701) 


>  <PLP.part.buried>  (701) 


>  <PLP.part.hbond>  (701) 


>  <PLP.part.metal>  (701) 


>  <PLP.part.nonpolar>  (701) 


>  <PLP.part.repulsive>  (701) 


>  <Version>  (701) 


$$$$
3701|Compound_404|Compounds_3D_F|sdf|116|dock10|1
     RDKit          3D

 28 31  0  0  0  0  0  0  0  0999 V2000
   -7.6574  -14.4537   11.7754 N   0  0  0  0  0  0  0  0  0  0  0  0
   -8.3520  -13.3363   11.4830 C   0  0  0  0  0  0  0  0  0  0  0  0
   -9.4921  -13.4210   11.0704 O   0  0  0  0  0  0  0  0  0  0  0  0
   -7.7286  -12.0107   11.6638 C   0  0  0  0  0  0  0  0  0  0  0  0
   -8.2412  -10.8486   11.3092 N   0  0  0  0  0  0  0  0  0  0  0  0
   -7.4331   -9.8984   11.6135 N   0  0  0  0  0  0  0  0  0  0  0  0
   -6.3181  -10.4020   12.1990 C   0  0  0  0  0  0  0  0  0  0  0  0
   -6.4698  -11.7469   12.2547 C   0  0  0  0  0  0  0  0  0  0  0  0
   -5.3509  -12.9041   12.9043 Cl  0  0  0  0  0  0  0  0  0  0  0  0
   -8.2396  -15.6966   11.5998 C   0  0  0  0  0  0  0  0  0  0  0  0
   -7.6663  -16.7204   11.0203 N   0  0  0  0  0  0  0  0  0  0  0  0
   -8.5176  -17.7808   11.0184 C   0  0  0  0  0  0  0  0  0  0  0  0
   -9.7009  -17.3604   11.6469 C   0  0  0  0  0  0  0  0  0  0  0  0
   -9.4962  -16.0395   12.0106 N   0  0  0  0  0  0  0  0  0  0  0  0
  -10.7619  -18.2426   11.7897 C   0  0  0  0  0  0  0  0  0  0  0  0
  -10.6494  -19.5357   11.3116 C   0  0  0  0  0  0  0  0  0  0  0  0
  -11.6896  -20.4018   11.4515 O   0  0  0  0  0  0  0  0  0  0  0  0
  -12.6740  -20.3721   10.5159 C   0  0  0  0  0  0  0  0  0  0  0  0
  -13.0351  -21.5353    9.8493 C   0  0  0  0  0  0  0  0  0  0  0  0
  -12.2295  -23.0299   10.2107 Cl  0  0  0  0  0  0  0  0  0  0  0  0
  -14.0375  -21.5013    8.8958 C   0  0  0  0  0  0  0  0  0  0  0  0
  -14.4901  -22.9553    8.0618 Cl  0  0  0  0  0  0  0  0  0  0  0  0
  -14.6805  -20.3100    8.6092 C   0  0  0  0  0  0  0  0  0  0  0  0
  -14.3209  -19.1512    9.2721 C   0  0  0  0  0  0  0  0  0  0  0  0
  -13.3243  -19.1801   10.2287 C   0  0  0  0  0  0  0  0  0  0  0  0
   -9.4779  -19.9558   10.6864 C   0  0  0  0  0  0  0  0  0  0  0  0
   -9.3529  -21.5806   10.0907 Cl  0  0  0  0  0  0  0  0  0  0  0  0
   -8.4178  -19.0891   10.5393 C   0  0  0  0  0  0  0  0  0  0  0  0
  1  2  1  0
  1 10  1  0
  2  3  2  0
  2  4  1  0
  4  5  2  0
  4  8  1  0
  5  6  1  0
  6  7  1  0
  7  8  2  0
  8  9  1  0
 10 11  2  0
 10 14  1  0
 11 12  1  0
 12 13  2  0
 12 28  1  0
 13 14  1  0
 13 15  1  0
 15 16  2  0
 16 17  1  0
 16 26  1  0
 17 18  1  0
 18 19  2  0
 18 25  1  0
 19 20  1  0
 19 21  1  0
 21 22  1  0
 21 23  2  0
 23 24  1  0
 24 25  2  0
 26 27  1  0
 26 28  2  0
M  END
>  <Gold.Gold.Protein.RotatedWaterAtoms>  (702) 


>  <Gold.Id.Protein>  (702) 


>  <Gold.PLP.Chemscore.CHOScore>  (702) 
1.0697

>  <Gold.PLP.Chemscore.Hbond>  (702) 
0.0000

>  <Gold.PLP.Chemscore.Internal.Correction>  (702) 
0.0559

>  <Gold.PLP.Chemscore.Metal>  (702) 
0.0000

>  <Gold.PLP.Fitness>  (702) 
64.8764

>  <Gold.PLP.PLP>  (702) 
-63.1856

>  <Gold.PLP.ligand.clash>  (702) 
0.0000

>  <Gold.PLP.ligand.torsion>  (702) 
0.7872

>  <Gold.PLP.part.buried>  (702) 
-9.8771

>  <Gold.PLP.part.hbond>  (702) 
-3.6235

>  <Gold.PLP.part.metal>  (702) 
0.0000

>  <Gold.PLP.part.nonpolar>  (702) 
-51.4358

>  <Gold.PLP.part.repulsive>  (702) 
1.7546

>  <Gold.Protein.RotatedAtoms>  (702) 


>  <Gold.Protein.RotatedTorsions>  (702) 


>  <Gold.Protein.RotatedWaterAtoms>  (702) 


>  <Gold.Version>  (702) 
5.3.0

>  <PLP.Chemscore.CHOScore>  (702) 


>  <PLP.Chemscore.Hbond>  (702) 


>  <PLP.Chemscore.Internal.Correction>  (702) 


>  <PLP.Chemscore.Metal>  (702) 


>  <PLP.Fitness>  (702) 


>  <PLP.PLP>  (702) 


>  <PLP.ligand.clash>  (702) 


>  <PLP.ligand.torsion>  (702) 


>  <PLP.part.buried>  (702) 


>  <PLP.part.hbond>  (702) 


>  <PLP.part.metal>  (702) 


>  <PLP.part.nonpolar>  (702) 


>  <PLP.part.repulsive>  (702) 


>  <Version>  (702) 


$$$$
3702|Compound_408|Compounds_3D_F|sdf|117|dock10|1
     RDKit          3D

 21 22  0  0  0  0  0  0  0  0999 V2000
   -9.8153  -18.6372   10.5504 N   0  0  0  0  0  0  0  0  0  0  0  0
  -10.9357  -18.3467   11.2414 C   0  0  0  0  0  0  0  0  0  0  0  0
  -10.8856  -17.5855   12.1873 O   0  0  0  0  0  0  0  0  0  0  0  0
  -12.2227  -18.9534   10.8484 C   0  0  0  0  0  0  0  0  0  0  0  0
  -12.4182  -19.8076    9.8633 N   0  0  0  0  0  0  0  0  0  0  0  0
  -13.6600  -20.1338    9.8001 N   0  0  0  0  0  0  0  0  0  0  0  0
  -14.3606  -19.4913   10.7684 C   0  0  0  0  0  0  0  0  0  0  0  0
  -13.4790  -18.7324   11.4626 C   0  0  0  0  0  0  0  0  0  0  0  0
  -13.8197  -17.6981   12.8144 Cl  0  0  0  0  0  0  0  0  0  0  0  0
   -8.5974  -18.0679   10.9246 C   0  0  0  0  0  0  0  0  0  0  0  0
   -8.5816  -16.8730   11.4946 N   0  0  0  0  0  0  0  0  0  0  0  0
   -7.4485  -16.2972   11.8653 C   0  0  0  0  0  0  0  0  0  0  0  0
   -7.4782  -15.0356   12.4633 N   0  0  0  0  0  0  0  0  0  0  0  0
   -6.9341  -13.9775   11.8302 C   0  0  0  0  0  0  0  0  0  0  0  0
   -6.4193  -14.1210   10.7423 O   0  0  0  0  0  0  0  0  0  0  0  0
   -6.9657  -12.6165   12.4755 C   0  0  0  0  0  0  0  0  0  0  0  0
   -6.2286  -16.9353   11.6673 C   0  0  0  0  0  0  0  0  0  0  0  0
   -5.0764  -16.3418   12.0494 F   0  0  0  0  0  0  0  0  0  0  0  0
   -6.2087  -18.1885   11.0724 C   0  0  0  0  0  0  0  0  0  0  0  0
   -7.4151  -18.7644   10.7006 C   0  0  0  0  0  0  0  0  0  0  0  0
   -7.4390  -19.9838   10.1191 F   0  0  0  0  0  0  0  0  0  0  0  0
  1  2  1  0
  1 10  1  0
  2  3  2  0
  2  4  1  0
  4  5  2  0
  4  8  1  0
  5  6  1  0
  6  7  1  0
  7  8  2  0
  8  9  1  0
 10 11  2  0
 10 20  1  0
 11 12  1  0
 12 13  1  0
 12 17  2  0
 13 14  1  0
 14 15  2  0
 14 16  1  0
 17 18  1  0
 17 19  1  0
 19 20  2  0
 20 21  1  0
M  END
>  <Gold.Gold.Protein.RotatedWaterAtoms>  (703) 


>  <Gold.Id.Protein>  (703) 


>  <Gold.PLP.Chemscore.CHOScore>  (703) 
0.5868

>  <Gold.PLP.Chemscore.Hbond>  (703) 
1.8667

>  <Gold.PLP.Chemscore.Internal.Correction>  (703) 
0.7217

>  <Gold.PLP.Chemscore.Metal>  (703) 
0.0000

>  <Gold.PLP.Fitness>  (703) 
47.2005

>  <Gold.PLP.PLP>  (703) 
-40.7443

>  <Gold.PLP.ligand.clash>  (703) 
0.0000

>  <Gold.PLP.ligand.torsion>  (703) 
0.8129

>  <Gold.PLP.part.buried>  (703) 
-6.4722

>  <Gold.PLP.part.hbond>  (703) 
-2.9108

>  <Gold.PLP.part.metal>  (703) 
0.0000

>  <Gold.PLP.part.nonpolar>  (703) 
-31.8745

>  <Gold.PLP.part.repulsive>  (703) 
0.4077

>  <Gold.Protein.RotatedAtoms>  (703) 


>  <Gold.Protein.RotatedTorsions>  (703) 


>  <Gold.Protein.RotatedWaterAtoms>  (703) 


>  <Gold.Version>  (703) 
5.3.0

>  <PLP.Chemscore.CHOScore>  (703) 


>  <PLP.Chemscore.Hbond>  (703) 


>  <PLP.Chemscore.Internal.Correction>  (703) 


>  <PLP.Chemscore.Metal>  (703) 


>  <PLP.Fitness>  (703) 


>  <PLP.PLP>  (703) 


>  <PLP.ligand.clash>  (703) 


>  <PLP.ligand.torsion>  (703) 


>  <PLP.part.buried>  (703) 


>  <PLP.part.hbond>  (703) 


>  <PLP.part.metal>  (703) 


>  <PLP.part.nonpolar>  (703) 


>  <PLP.part.repulsive>  (703) 


>  <Version>  (703) 


$$$$
3703|Compound_410|Compounds_3D_F|sdf|119|dock10|1
     RDKit          3D

 20 21  0  0  0  0  0  0  0  0999 V2000
   -6.9400  -17.3263    8.7800 O   0  0  0  0  0  0  0  0  0  0  0  0
   -8.0620  -17.9792    8.4228 C   0  0  0  0  0  0  0  0  0  0  0  0
   -8.1212  -18.5416    7.3476 O   0  0  0  0  0  0  0  0  0  0  0  0
   -9.2230  -18.0127    9.3384 C   0  0  0  0  0  0  0  0  0  0  0  0
  -10.3326  -18.6750    9.0028 N   0  0  0  0  0  0  0  0  0  0  0  0
  -11.3721  -18.7112    9.8141 C   0  0  0  0  0  0  0  0  0  0  0  0
  -12.4785  -19.3956    9.4346 O   0  0  0  0  0  0  0  0  0  0  0  0
  -11.3676  -18.0982   10.9892 N   0  0  0  0  0  0  0  0  0  0  0  0
  -10.3089  -17.4181   11.3996 C   0  0  0  0  0  0  0  0  0  0  0  0
  -10.3160  -16.7958   12.6044 O   0  0  0  0  0  0  0  0  0  0  0  0
   -9.1754  -17.3567   10.5723 C   0  0  0  0  0  0  0  0  0  0  0  0
   -8.0388  -16.6522   10.9654 N   0  0  0  0  0  0  0  0  0  0  0  0
   -8.0902  -15.3124   11.1045 C   0  0  0  0  0  0  0  0  0  0  0  0
   -9.1134  -14.7124   10.8354 O   0  0  0  0  0  0  0  0  0  0  0  0
   -6.9054  -14.5738   11.5836 C   0  0  0  0  0  0  0  0  0  0  0  0
   -5.7000  -15.0693   11.7807 N   0  0  0  0  0  0  0  0  0  0  0  0
   -4.9064  -14.1502   12.1984 N   0  0  0  0  0  0  0  0  0  0  0  0
   -5.5692  -12.9707   12.2993 C   0  0  0  0  0  0  0  0  0  0  0  0
   -6.8472  -13.1975   11.9104 C   0  0  0  0  0  0  0  0  0  0  0  0
   -8.1431  -12.0448   11.8384 Cl  0  0  0  0  0  0  0  0  0  0  0  0
  1  2  1  0
  2  3  2  0
  2  4  1  0
  4  5  2  0
  4 11  1  0
  5  6  1  0
  6  7  1  0
  6  8  2  0
  8  9  1  0
  9 10  1  0
  9 11  2  0
 11 12  1  0
 12 13  1  0
 13 14  2  0
 13 15  1  0
 15 16  2  0
 15 19  1  0
 16 17  1  0
 17 18  1  0
 18 19  2  0
 19 20  1  0
M  END
>  <Gold.Gold.Protein.RotatedWaterAtoms>  (704) 


>  <Gold.Id.Protein>  (704) 


>  <Gold.PLP.Chemscore.CHOScore>  (704) 
0.0000

>  <Gold.PLP.Chemscore.Hbond>  (704) 
2.4446

>  <Gold.PLP.Chemscore.Internal.Correction>  (704) 
1.1570

>  <Gold.PLP.Chemscore.Metal>  (704) 
0.0000

>  <Gold.PLP.Fitness>  (704) 
42.1479

>  <Gold.PLP.PLP>  (704) 
-34.9578

>  <Gold.PLP.ligand.clash>  (704) 
0.0000

>  <Gold.PLP.ligand.torsion>  (704) 
0.6504

>  <Gold.PLP.part.buried>  (704) 
-4.1286

>  <Gold.PLP.part.hbond>  (704) 
-8.0401

>  <Gold.PLP.part.metal>  (704) 
0.0000

>  <Gold.PLP.part.nonpolar>  (704) 
-23.6762

>  <Gold.PLP.part.repulsive>  (704) 
0.3854

>  <Gold.Protein.RotatedAtoms>  (704) 


>  <Gold.Protein.RotatedTorsions>  (704) 


>  <Gold.Protein.RotatedWaterAtoms>  (704) 


>  <Gold.Version>  (704) 
5.3.0

>  <PLP.Chemscore.CHOScore>  (704) 


>  <PLP.Chemscore.Hbond>  (704) 


>  <PLP.Chemscore.Internal.Correction>  (704) 


>  <PLP.Chemscore.Metal>  (704) 


>  <PLP.Fitness>  (704) 


>  <PLP.PLP>  (704) 


>  <PLP.ligand.clash>  (704) 


>  <PLP.ligand.torsion>  (704) 


>  <PLP.part.buried>  (704) 


>  <PLP.part.hbond>  (704) 


>  <PLP.part.metal>  (704) 


>  <PLP.part.nonpolar>  (704) 


>  <PLP.part.repulsive>  (704) 


>  <Version>  (704) 


$$$$
3704|Compound_412|Compounds_3D_F|sdf|121|dock10|1
     RDKit          3D

 18 19  0  0  0  0  0  0  0  0999 V2000
   -8.5111  -15.5786   12.2017 N   0  0  0  0  0  0  0  0  0  0  0  0
   -8.6632  -14.2394   12.1777 C   0  0  0  0  0  0  0  0  0  0  0  0
   -9.7762  -13.7556   12.1165 O   0  0  0  0  0  0  0  0  0  0  0  0
   -7.4774  -13.3615   12.2259 C   0  0  0  0  0  0  0  0  0  0  0  0
   -7.4694  -12.0480   12.1113 N   0  0  0  0  0  0  0  0  0  0  0  0
   -6.2666  -11.6033   12.2002 N   0  0  0  0  0  0  0  0  0  0  0  0
   -5.4012  -12.6325   12.3819 C   0  0  0  0  0  0  0  0  0  0  0  0
   -6.1348  -13.7710   12.4104 C   0  0  0  0  0  0  0  0  0  0  0  0
   -5.5504  -15.3922   12.6188 Cl  0  0  0  0  0  0  0  0  0  0  0  0
   -9.6266  -16.4058   12.1513 C   0  0  0  0  0  0  0  0  0  0  0  0
  -10.8075  -16.2825   12.7430 N   0  0  0  0  0  0  0  0  0  0  0  0
  -11.7217  -17.1367   12.5870 N   0  0  0  0  0  0  0  0  0  0  0  0
  -11.5641  -18.2041   11.8287 C   0  0  0  0  0  0  0  0  0  0  0  0
   -9.8855  -17.9390   11.2625 S   0  0  0  0  0  0  0  0  0  0  0  0
  -12.5237  -19.3245   11.5218 C   0  0  0  0  0  0  0  0  0  0  0  0
  -11.8827  -20.2848   10.7322 F   0  0  0  0  0  0  0  0  0  0  0  0
  -12.9512  -19.9131   12.7170 F   0  0  0  0  0  0  0  0  0  0  0  0
  -13.6297  -18.8159   10.8322 F   0  0  0  0  0  0  0  0  0  0  0  0
  1  2  1  0
  1 10  1  0
  2  3  2  0
  2  4  1  0
  4  5  2  0
  4  8  1  0
  5  6  1  0
  6  7  1  0
  7  8  2  0
  8  9  1  0
 10 11  2  0
 10 14  1  0
 11 12  1  0
 12 13  2  0
 13 14  1  0
 13 15  1  0
 15 16  1  0
 15 17  1  0
 15 18  1  0
M  END
>  <Gold.Gold.Protein.RotatedWaterAtoms>  (705) 


>  <Gold.Id.Protein>  (705) 


>  <Gold.PLP.Chemscore.CHOScore>  (705) 
1.0000

>  <Gold.PLP.Chemscore.Hbond>  (705) 
1.6904

>  <Gold.PLP.Chemscore.Internal.Correction>  (705) 
0.0006

>  <Gold.PLP.Chemscore.Metal>  (705) 
0.0000

>  <Gold.PLP.Fitness>  (705) 
48.5423

>  <Gold.PLP.PLP>  (705) 
-41.2199

>  <Gold.PLP.ligand.clash>  (705) 
0.0000

>  <Gold.PLP.ligand.torsion>  (705) 
0.3747

>  <Gold.PLP.part.buried>  (705) 
-2.9417

>  <Gold.PLP.part.hbond>  (705) 
-6.3598

>  <Gold.PLP.part.metal>  (705) 
0.0000

>  <Gold.PLP.part.nonpolar>  (705) 
-32.9117

>  <Gold.PLP.part.repulsive>  (705) 
0.6736

>  <Gold.Protein.RotatedAtoms>  (705) 


>  <Gold.Protein.RotatedTorsions>  (705) 


>  <Gold.Protein.RotatedWaterAtoms>  (705) 


>  <Gold.Version>  (705) 
5.3.0

>  <PLP.Chemscore.CHOScore>  (705) 


>  <PLP.Chemscore.Hbond>  (705) 


>  <PLP.Chemscore.Internal.Correction>  (705) 


>  <PLP.Chemscore.Metal>  (705) 


>  <PLP.Fitness>  (705) 


>  <PLP.PLP>  (705) 


>  <PLP.ligand.clash>  (705) 


>  <PLP.ligand.torsion>  (705) 


>  <PLP.part.buried>  (705) 


>  <PLP.part.hbond>  (705) 


>  <PLP.part.metal>  (705) 


>  <PLP.part.nonpolar>  (705) 


>  <PLP.part.repulsive>  (705) 


>  <Version>  (705) 


$$$$
3705|Compound_433|Compounds_3D_F|sdf|132|dock10|1
     RDKit          3D

 29 32  0  0  0  0  0  0  0  0999 V2000
   -6.9052  -18.6281    5.6907 O   0  0  0  0  0  0  0  0  0  0  0  0
   -7.3742  -18.3644    6.9341 C   0  0  0  0  0  0  0  0  0  0  0  0
   -8.4965  -18.9238    7.3663 N   0  0  0  0  0  0  0  0  0  0  0  0
   -8.9641  -18.6730    8.5823 C   0  0  0  0  0  0  0  0  0  0  0  0
   -8.3469  -17.8586    9.4220 N   0  0  0  0  0  0  0  0  0  0  0  0
   -7.2173  -17.2552    9.0698 C   0  0  0  0  0  0  0  0  0  0  0  0
   -6.6814  -17.4975    7.7933 C   0  0  0  0  0  0  0  0  0  0  0  0
   -5.5430  -16.7684    7.6930 N   0  0  0  0  0  0  0  0  0  0  0  0
   -5.3512  -16.1106    8.7990 C   0  0  0  0  0  0  0  0  0  0  0  0
   -6.3553  -16.3810    9.6822 N   0  0  0  0  0  0  0  0  0  0  0  0
   -6.4929  -15.8324   11.0336 C   0  0  0  0  0  0  0  0  0  0  0  0
   -7.8174  -15.2875   11.2227 O   0  0  0  0  0  0  0  0  0  0  0  0
   -7.6961  -14.3687   12.3296 C   0  0  0  0  0  0  0  0  0  0  0  0
   -8.8516  -13.3664   12.3180 C   0  0  0  0  0  0  0  0  0  0  0  0
  -10.0356  -13.9969   12.8097 O   0  0  0  0  0  0  0  0  0  0  0  0
   -6.3510  -13.6460   12.0987 C   0  0  0  0  0  0  0  0  0  0  0  0
   -5.6872  -13.4131   13.3429 O   0  0  0  0  0  0  0  0  0  0  0  0
   -5.5391  -14.6322   11.2270 C   0  0  0  0  0  0  0  0  0  0  0  0
   -4.3495  -15.0385   11.9061 O   0  0  0  0  0  0  0  0  0  0  0  0
  -10.1440  -19.2847    8.9868 N   0  0  0  0  0  0  0  0  0  0  0  0
  -11.1500  -18.5419    9.4910 C   0  0  0  0  0  0  0  0  0  0  0  0
  -11.0239  -17.3371    9.5913 O   0  0  0  0  0  0  0  0  0  0  0  0
  -12.4084  -19.1936    9.9208 C   0  0  0  0  0  0  0  0  0  0  0  0
  -13.5424  -19.1027    9.1173 C   0  0  0  0  0  0  0  0  0  0  0  0
  -14.7134  -19.7175    9.5331 C   0  0  0  0  0  0  0  0  0  0  0  0
  -14.7089  -20.4018   10.7381 C   0  0  0  0  0  0  0  0  0  0  0  0
  -13.5431  -20.4511   11.4866 C   0  0  0  0  0  0  0  0  0  0  0  0
  -12.4450  -19.8631   11.0660 N   0  0  0  0  0  0  0  0  0  0  0  0
  -13.5329  -21.1942   12.7976 C   0  0  0  0  0  0  0  0  0  0  0  0
  1  2  1  0
  2  3  2  0
  2  7  1  0
  3  4  1  0
  4  5  2  0
  4 20  1  0
  5  6  1  0
  6  7  2  0
  6 10  1  0
  7  8  1  0
  8  9  2  0
  9 10  1  0
 10 11  1  0
 11 12  1  0
 11 18  1  0
 12 13  1  0
 13 14  1  0
 13 16  1  0
 14 15  1  0
 16 17  1  0
 16 18  1  0
 18 19  1  0
 20 21  1  0
 21 22  2  0
 21 23  1  0
 23 24  2  0
 23 28  1  0
 24 25  1  0
 25 26  2  0
 26 27  1  0
 27 28  2  0
 27 29  1  0
M  END
>  <Gold.Gold.Protein.RotatedWaterAtoms>  (706) 


>  <Gold.Id.Protein>  (706) 


>  <Gold.PLP.Chemscore.CHOScore>  (706) 
1.0000

>  <Gold.PLP.Chemscore.Hbond>  (706) 
4.2646

>  <Gold.PLP.Chemscore.Internal.Correction>  (706) 
0.4497

>  <Gold.PLP.Chemscore.Metal>  (706) 
0.0000

>  <Gold.PLP.Fitness>  (706) 
59.5633

>  <Gold.PLP.PLP>  (706) 
-47.7784

>  <Gold.PLP.ligand.clash>  (706) 
0.0000

>  <Gold.PLP.ligand.torsion>  (706) 
2.2292

>  <Gold.PLP.part.buried>  (706) 
-4.1050

>  <Gold.PLP.part.hbond>  (706) 
-8.0000

>  <Gold.PLP.part.metal>  (706) 
0.0000

>  <Gold.PLP.part.nonpolar>  (706) 
-38.5881

>  <Gold.PLP.part.repulsive>  (706) 
1.4189

>  <Gold.Protein.RotatedAtoms>  (706) 


>  <Gold.Protein.RotatedTorsions>  (706) 


>  <Gold.Protein.RotatedWaterAtoms>  (706) 


>  <Gold.Version>  (706) 
5.3.0

>  <PLP.Chemscore.CHOScore>  (706) 


>  <PLP.Chemscore.Hbond>  (706) 


>  <PLP.Chemscore.Internal.Correction>  (706) 


>  <PLP.Chemscore.Metal>  (706) 


>  <PLP.Fitness>  (706) 


>  <PLP.PLP>  (706) 


>  <PLP.ligand.clash>  (706) 


>  <PLP.ligand.torsion>  (706) 


>  <PLP.part.buried>  (706) 


>  <PLP.part.hbond>  (706) 


>  <PLP.part.metal>  (706) 


>  <PLP.part.nonpolar>  (706) 


>  <PLP.part.repulsive>  (706) 


>  <Version>  (706) 


$$$$
3706|Compound_496|Compounds_3D_F|sdf|143|dock10|1
     RDKit          3D

 29 32  0  0  0  0  0  0  0  0999 V2000
   -8.6021  -20.0091    7.4380 O   0  0  0  0  0  0  0  0  0  0  0  0
   -8.8253  -19.5372    8.6883 C   0  0  0  0  0  0  0  0  0  0  0  0
   -8.1692  -18.4756    9.1376 N   0  0  0  0  0  0  0  0  0  0  0  0
   -8.3808  -18.0050   10.3599 C   0  0  0  0  0  0  0  0  0  0  0  0
   -9.2455  -18.5622   11.1911 N   0  0  0  0  0  0  0  0  0  0  0  0
   -9.9445  -19.6298   10.8225 C   0  0  0  0  0  0  0  0  0  0  0  0
   -9.7580  -20.1581    9.5335 C   0  0  0  0  0  0  0  0  0  0  0  0
  -10.5820  -21.2280    9.4176 N   0  0  0  0  0  0  0  0  0  0  0  0
  -11.2452  -21.3863   10.5257 C   0  0  0  0  0  0  0  0  0  0  0  0
  -10.8909  -20.4214   11.4229 N   0  0  0  0  0  0  0  0  0  0  0  0
  -11.4171  -20.2646   12.7800 C   0  0  0  0  0  0  0  0  0  0  0  0
  -10.8400  -21.2531   13.6611 O   0  0  0  0  0  0  0  0  0  0  0  0
  -11.7489  -21.3429   14.7799 C   0  0  0  0  0  0  0  0  0  0  0  0
  -11.5542  -22.6677   15.5191 C   0  0  0  0  0  0  0  0  0  0  0  0
  -11.7769  -23.7542   14.6168 O   0  0  0  0  0  0  0  0  0  0  0  0
  -13.1576  -21.2779   14.1508 C   0  0  0  0  0  0  0  0  0  0  0  0
  -14.0452  -20.5295   14.9855 O   0  0  0  0  0  0  0  0  0  0  0  0
  -12.9357  -20.5488   12.8045 C   0  0  0  0  0  0  0  0  0  0  0  0
  -13.6777  -19.3289   12.7665 O   0  0  0  0  0  0  0  0  0  0  0  0
   -7.6677  -16.8901   10.7823 N   0  0  0  0  0  0  0  0  0  0  0  0
   -8.3221  -15.8146   11.2651 C   0  0  0  0  0  0  0  0  0  0  0  0
   -9.5358  -15.8212   11.3306 O   0  0  0  0  0  0  0  0  0  0  0  0
   -7.5636  -14.6291   11.7154 C   0  0  0  0  0  0  0  0  0  0  0  0
   -8.0498  -13.3431   11.4754 C   0  0  0  0  0  0  0  0  0  0  0  0
   -7.3737  -12.2867   11.8766 N   0  0  0  0  0  0  0  0  0  0  0  0
   -6.2235  -12.3952   12.5146 C   0  0  0  0  0  0  0  0  0  0  0  0
   -5.6750  -13.6354   12.7900 C   0  0  0  0  0  0  0  0  0  0  0  0
   -6.3486  -14.7765   12.3949 C   0  0  0  0  0  0  0  0  0  0  0  0
   -7.9142  -10.9520   11.6078 C   0  0  0  0  0  0  0  0  0  0  0  0
  1  2  1  0
  2  3  2  0
  2  7  1  0
  3  4  1  0
  4  5  2  0
  4 20  1  0
  5  6  1  0
  6  7  2  0
  6 10  1  0
  7  8  1  0
  8  9  2  0
  9 10  1  0
 10 11  1  0
 11 12  1  0
 11 18  1  0
 12 13  1  0
 13 14  1  0
 13 16  1  0
 14 15  1  0
 16 17  1  0
 16 18  1  0
 18 19  1  0
 20 21  1  0
 21 22  2  0
 21 23  1  0
 23 24  2  0
 23 28  1  0
 24 25  1  0
 25 26  2  0
 25 29  1  0
 26 27  1  0
 27 28  2  0
M  CHG  1  25   1
M  END
>  <Gold.Gold.Protein.RotatedWaterAtoms>  (707) 


>  <Gold.Id.Protein>  (707) 


>  <Gold.PLP.Chemscore.CHOScore>  (707) 
0.0000

>  <Gold.PLP.Chemscore.Hbond>  (707) 
3.1200

>  <Gold.PLP.Chemscore.Internal.Correction>  (707) 
0.4427

>  <Gold.PLP.Chemscore.Metal>  (707) 
0.0000

>  <Gold.PLP.Fitness>  (707) 
66.8047

>  <Gold.PLP.PLP>  (707) 
-60.1175

>  <Gold.PLP.ligand.clash>  (707) 
0.0000

>  <Gold.PLP.ligand.torsion>  (707) 
1.5577

>  <Gold.PLP.part.buried>  (707) 
-10.4129

>  <Gold.PLP.part.hbond>  (707) 
-3.5438

>  <Gold.PLP.part.metal>  (707) 
0.0000

>  <Gold.PLP.part.nonpolar>  (707) 
-46.4547

>  <Gold.PLP.part.repulsive>  (707) 
0.0986

>  <Gold.Protein.RotatedAtoms>  (707) 


>  <Gold.Protein.RotatedTorsions>  (707) 


>  <Gold.Protein.RotatedWaterAtoms>  (707) 


>  <Gold.Version>  (707) 
5.3.0

>  <PLP.Chemscore.CHOScore>  (707) 


>  <PLP.Chemscore.Hbond>  (707) 


>  <PLP.Chemscore.Internal.Correction>  (707) 


>  <PLP.Chemscore.Metal>  (707) 


>  <PLP.Fitness>  (707) 


>  <PLP.PLP>  (707) 


>  <PLP.ligand.clash>  (707) 


>  <PLP.ligand.torsion>  (707) 


>  <PLP.part.buried>  (707) 


>  <PLP.part.hbond>  (707) 


>  <PLP.part.metal>  (707) 


>  <PLP.part.nonpolar>  (707) 


>  <PLP.part.repulsive>  (707) 


>  <Version>  (707) 


$$$$
3707|Compound_498|Compounds_3D_F|sdf|144|dock10|1
     RDKit          3D

 34 36  0  0  0  0  0  0  0  0999 V2000
   -7.8383  -18.5269    6.2382 O   0  0  0  0  0  0  0  0  0  0  0  0
   -7.9975  -18.3031    7.5642 C   0  0  0  0  0  0  0  0  0  0  0  0
   -7.3134  -17.2554    8.2007 C   0  0  0  0  0  0  0  0  0  0  0  0
   -6.4383  -16.3036    7.7932 N   0  0  0  0  0  0  0  0  0  0  0  0
   -6.0996  -15.5630    8.8082 C   0  0  0  0  0  0  0  0  0  0  0  0
   -6.7388  -15.9946    9.9333 N   0  0  0  0  0  0  0  0  0  0  0  0
   -7.5170  -17.0670    9.5790 C   0  0  0  0  0  0  0  0  0  0  0  0
   -8.3427  -17.8811   10.2276 N   0  0  0  0  0  0  0  0  0  0  0  0
   -8.9665  -18.8554    9.5880 C   0  0  0  0  0  0  0  0  0  0  0  0
   -8.8073  -19.0648    8.2873 N   0  0  0  0  0  0  0  0  0  0  0  0
   -9.8227  -19.6855   10.3004 N   0  0  0  0  0  0  0  0  0  0  0  0
  -10.7251  -19.1547   11.1490 C   0  0  0  0  0  0  0  0  0  0  0  0
  -10.7889  -17.9494   11.2919 O   0  0  0  0  0  0  0  0  0  0  0  0
  -11.6360  -20.0386   11.9069 C   0  0  0  0  0  0  0  0  0  0  0  0
  -12.9411  -20.2510   11.4574 C   0  0  0  0  0  0  0  0  0  0  0  0
  -13.7855  -21.0775   12.1695 C   0  0  0  0  0  0  0  0  0  0  0  0
  -13.3419  -21.6951   13.3250 C   0  0  0  0  0  0  0  0  0  0  0  0
  -12.0505  -21.4891   13.7762 C   0  0  0  0  0  0  0  0  0  0  0  0
  -11.1934  -20.6694   13.0702 C   0  0  0  0  0  0  0  0  0  0  0  0
  -11.5766  -22.1656   15.0362 C   0  0  0  0  0  0  0  0  0  0  0  0
  -12.5947  -22.9840   15.5366 F   0  0  0  0  0  0  0  0  0  0  0  0
  -10.4495  -22.9449   14.7513 F   0  0  0  0  0  0  0  0  0  0  0  0
  -11.2445  -21.1971   15.9891 F   0  0  0  0  0  0  0  0  0  0  0  0
  -13.4251  -19.5787   10.1988 C   0  0  0  0  0  0  0  0  0  0  0  0
  -13.2298  -18.1974   10.3043 F   0  0  0  0  0  0  0  0  0  0  0  0
  -12.7072  -20.0690    9.1023 F   0  0  0  0  0  0  0  0  0  0  0  0
  -14.7866  -19.8454   10.0220 F   0  0  0  0  0  0  0  0  0  0  0  0
   -6.6166  -15.4173   11.2744 C   0  0  0  0  0  0  0  0  0  0  0  0
   -6.4114  -13.9053   11.1606 C   0  0  0  0  0  0  0  0  0  0  0  0
   -6.8590  -13.2312   12.4597 C   0  0  0  0  0  0  0  0  0  0  0  0
   -6.0130  -11.9798   12.7040 C   0  0  0  0  0  0  0  0  0  0  0  0
   -4.7665  -12.3561   13.2927 O   0  0  0  0  0  0  0  0  0  0  0  0
   -8.3328  -12.8371   12.3475 C   0  0  0  0  0  0  0  0  0  0  0  0
   -8.4922  -11.8783   11.2997 O   0  0  0  0  0  0  0  0  0  0  0  0
  1  2  1  0
  2  3  2  0
  2 10  1  0
  3  4  1  0
  3  7  1  0
  4  5  2  0
  5  6  1  0
  6  7  1  0
  6 28  1  0
  7  8  2  0
  8  9  1  0
  9 10  2  0
  9 11  1  0
 11 12  1  0
 12 13  2  0
 12 14  1  0
 14 15  2  0
 14 19  1  0
 15 16  1  0
 15 24  1  0
 16 17  2  0
 17 18  1  0
 18 19  2  0
 18 20  1  0
 20 21  1  0
 20 22  1  0
 20 23  1  0
 24 25  1  0
 24 26  1  0
 24 27  1  0
 28 29  1  0
 29 30  1  0
 30 31  1  0
 30 33  1  0
 31 32  1  0
 33 34  1  0
M  END
>  <Gold.Gold.Protein.RotatedWaterAtoms>  (708) 


>  <Gold.Id.Protein>  (708) 


>  <Gold.PLP.Chemscore.CHOScore>  (708) 
0.9747

>  <Gold.PLP.Chemscore.Hbond>  (708) 
2.0920

>  <Gold.PLP.Chemscore.Internal.Correction>  (708) 
15.4728

>  <Gold.PLP.Chemscore.Metal>  (708) 
0.0000

>  <Gold.PLP.Fitness>  (708) 
75.1374

>  <Gold.PLP.PLP>  (708) 
-68.7744

>  <Gold.PLP.ligand.clash>  (708) 
12.1796

>  <Gold.PLP.ligand.torsion>  (708) 
3.0651

>  <Gold.PLP.part.buried>  (708) 
-8.0174

>  <Gold.PLP.part.hbond>  (708) 
-6.6973

>  <Gold.PLP.part.metal>  (708) 
0.0000

>  <Gold.PLP.part.nonpolar>  (708) 
-55.8023

>  <Gold.PLP.part.repulsive>  (708) 
0.1735

>  <Gold.Protein.RotatedAtoms>  (708) 


>  <Gold.Protein.RotatedTorsions>  (708) 


>  <Gold.Protein.RotatedWaterAtoms>  (708) 


>  <Gold.Version>  (708) 
5.3.0

>  <PLP.Chemscore.CHOScore>  (708) 


>  <PLP.Chemscore.Hbond>  (708) 


>  <PLP.Chemscore.Internal.Correction>  (708) 


>  <PLP.Chemscore.Metal>  (708) 


>  <PLP.Fitness>  (708) 


>  <PLP.PLP>  (708) 


>  <PLP.ligand.clash>  (708) 


>  <PLP.ligand.torsion>  (708) 


>  <PLP.part.buried>  (708) 


>  <PLP.part.hbond>  (708) 


>  <PLP.part.metal>  (708) 


>  <PLP.part.nonpolar>  (708) 


>  <PLP.part.repulsive>  (708) 


>  <Version>  (708) 


$$$$
3708|Compound_538|Compounds_3D_F|sdf|151|dock10|1
     RDKit          3D

 29 31  0  0  0  0  0  0  0  0999 V2000
   -8.6525  -16.2440   11.6741 N   0  0  0  0  0  0  0  0  0  0  0  0
   -8.7003  -14.9054   11.8208 C   0  0  0  0  0  0  0  0  0  0  0  0
   -9.7518  -14.3139   11.6700 O   0  0  0  0  0  0  0  0  0  0  0  0
   -7.4765  -14.1582   12.1639 C   0  0  0  0  0  0  0  0  0  0  0  0
   -6.2993  -14.8392   12.5188 C   0  0  0  0  0  0  0  0  0  0  0  0
   -5.2023  -14.1626   12.8261 N   0  0  0  0  0  0  0  0  0  0  0  0
   -5.1730  -12.8445   12.8104 C   0  0  0  0  0  0  0  0  0  0  0  0
   -6.2920  -12.1051   12.4709 C   0  0  0  0  0  0  0  0  0  0  0  0
   -7.4637  -12.7591   12.1360 C   0  0  0  0  0  0  0  0  0  0  0  0
   -6.2858  -16.2219   12.5480 N   0  0  0  0  0  0  0  0  0  0  0  0
   -5.3030  -16.9261   11.8466 C   0  0  0  0  0  0  0  0  0  0  0  0
   -5.6636  -17.9553   10.9863 C   0  0  0  0  0  0  0  0  0  0  0  0
   -4.6907  -18.6490   10.2943 C   0  0  0  0  0  0  0  0  0  0  0  0
   -3.3573  -18.3200   10.4576 C   0  0  0  0  0  0  0  0  0  0  0  0
   -2.9946  -17.2954   11.3127 C   0  0  0  0  0  0  0  0  0  0  0  0
   -3.9624  -16.5942   12.0032 C   0  0  0  0  0  0  0  0  0  0  0  0
   -5.0813  -19.7666    9.3618 C   0  0  0  0  0  0  0  0  0  0  0  0
   -6.4759  -19.8786    9.3272 F   0  0  0  0  0  0  0  0  0  0  0  0
   -4.6038  -19.4906    8.0767 F   0  0  0  0  0  0  0  0  0  0  0  0
   -4.5288  -20.9688    9.8175 F   0  0  0  0  0  0  0  0  0  0  0  0
   -9.8021  -16.9470   11.3457 C   0  0  0  0  0  0  0  0  0  0  0  0
  -10.2160  -17.2362   10.1368 N   0  0  0  0  0  0  0  0  0  0  0  0
  -11.3168  -17.8980   10.2111 N   0  0  0  0  0  0  0  0  0  0  0  0
  -11.6463  -18.0552   11.4598 C   0  0  0  0  0  0  0  0  0  0  0  0
  -10.6950  -17.4637   12.2084 O   0  0  0  0  0  0  0  0  0  0  0  0
  -12.8674  -18.7726   11.9758 C   0  0  0  0  0  0  0  0  0  0  0  0
  -12.4715  -19.8451   12.7813 F   0  0  0  0  0  0  0  0  0  0  0  0
  -13.6442  -17.8858   12.7295 F   0  0  0  0  0  0  0  0  0  0  0  0
  -13.6183  -19.2511   10.8974 F   0  0  0  0  0  0  0  0  0  0  0  0
  1  2  1  0
  1 21  1  0
  2  3  2  0
  2  4  1  0
  4  5  1  0
  4  9  2  0
  5  6  2  0
  5 10  1  0
  6  7  1  0
  7  8  2  0
  8  9  1  0
 10 11  1  0
 11 12  2  0
 11 16  1  0
 12 13  1  0
 13 14  2  0
 13 17  1  0
 14 15  1  0
 15 16  2  0
 17 18  1  0
 17 19  1  0
 17 20  1  0
 21 22  2  0
 21 25  1  0
 22 23  1  0
 23 24  2  0
 24 25  1  0
 24 26  1  0
 26 27  1  0
 26 28  1  0
 26 29  1  0
M  END
>  <Gold.Gold.Protein.RotatedWaterAtoms>  (709) 


>  <Gold.Id.Protein>  (709) 


>  <Gold.PLP.Chemscore.CHOScore>  (709) 
1.2249

>  <Gold.PLP.Chemscore.Hbond>  (709) 
1.2113

>  <Gold.PLP.Chemscore.Internal.Correction>  (709) 
3.3353

>  <Gold.PLP.Chemscore.Metal>  (709) 
0.0000

>  <Gold.PLP.Fitness>  (709) 
60.6617

>  <Gold.PLP.PLP>  (709) 
-56.4400

>  <Gold.PLP.ligand.clash>  (709) 
2.9833

>  <Gold.PLP.ligand.torsion>  (709) 
1.7195

>  <Gold.PLP.part.buried>  (709) 
-3.3977

>  <Gold.PLP.part.hbond>  (709) 
-4.2159

>  <Gold.PLP.part.metal>  (709) 
0.0000

>  <Gold.PLP.part.nonpolar>  (709) 
-50.4303

>  <Gold.PLP.part.repulsive>  (709) 
0.5899

>  <Gold.Protein.RotatedAtoms>  (709) 


>  <Gold.Protein.RotatedTorsions>  (709) 


>  <Gold.Protein.RotatedWaterAtoms>  (709) 


>  <Gold.Version>  (709) 
5.3.0

>  <PLP.Chemscore.CHOScore>  (709) 


>  <PLP.Chemscore.Hbond>  (709) 


>  <PLP.Chemscore.Internal.Correction>  (709) 


>  <PLP.Chemscore.Metal>  (709) 


>  <PLP.Fitness>  (709) 


>  <PLP.PLP>  (709) 


>  <PLP.ligand.clash>  (709) 


>  <PLP.ligand.torsion>  (709) 


>  <PLP.part.buried>  (709) 


>  <PLP.part.hbond>  (709) 


>  <PLP.part.metal>  (709) 


>  <PLP.part.nonpolar>  (709) 


>  <PLP.part.repulsive>  (709) 


>  <Version>  (709) 


$$$$
3709|Compound_540|Compounds_3D_F|sdf|152|dock10|1
     RDKit          3D

 29 31  0  0  0  0  0  0  0  0999 V2000
   -3.8462  -16.3195   10.7607 N   0  0  0  0  0  0  0  0  0  0  0  0
   -4.9274  -16.5257   11.5381 C   0  0  0  0  0  0  0  0  0  0  0  0
   -5.0892  -17.6006   12.0827 O   0  0  0  0  0  0  0  0  0  0  0  0
   -5.9149  -15.4480   11.7269 C   0  0  0  0  0  0  0  0  0  0  0  0
   -7.1889  -15.5337   11.1408 C   0  0  0  0  0  0  0  0  0  0  0  0
   -8.0724  -14.5622   11.3138 N   0  0  0  0  0  0  0  0  0  0  0  0
   -7.7957  -13.4926   12.0326 C   0  0  0  0  0  0  0  0  0  0  0  0
   -6.5634  -13.3365   12.6418 C   0  0  0  0  0  0  0  0  0  0  0  0
   -5.6034  -14.3225   12.4997 C   0  0  0  0  0  0  0  0  0  0  0  0
   -7.5220  -16.6390   10.3774 N   0  0  0  0  0  0  0  0  0  0  0  0
   -8.5214  -17.5134   10.8133 C   0  0  0  0  0  0  0  0  0  0  0  0
   -8.4670  -18.8590   10.4729 C   0  0  0  0  0  0  0  0  0  0  0  0
   -9.4558  -19.7205   10.9047 C   0  0  0  0  0  0  0  0  0  0  0  0
  -10.5009  -19.2444   11.6755 C   0  0  0  0  0  0  0  0  0  0  0  0
  -10.5587  -17.9053   12.0163 C   0  0  0  0  0  0  0  0  0  0  0  0
   -9.5704  -17.0407   11.5926 C   0  0  0  0  0  0  0  0  0  0  0  0
   -9.3973  -21.1804   10.5352 C   0  0  0  0  0  0  0  0  0  0  0  0
   -8.0615  -21.5710   10.3903 F   0  0  0  0  0  0  0  0  0  0  0  0
   -9.9992  -21.9418   11.5433 F   0  0  0  0  0  0  0  0  0  0  0  0
  -10.0767  -21.3834    9.3287 F   0  0  0  0  0  0  0  0  0  0  0  0
   -2.9175  -17.3382   10.5780 C   0  0  0  0  0  0  0  0  0  0  0  0
   -1.7189  -17.3082   10.0115 N   0  0  0  0  0  0  0  0  0  0  0  0
   -0.9966  -18.3390    9.9284 N   0  0  0  0  0  0  0  0  0  0  0  0
   -1.3851  -19.5077   10.3981 C   0  0  0  0  0  0  0  0  0  0  0  0
   -2.9929  -19.0639   11.0491 S   0  0  0  0  0  0  0  0  0  0  0  0
   -0.6748  -20.8367   10.3954 C   0  0  0  0  0  0  0  0  0  0  0  0
   -1.4328  -21.7723   11.1082 F   0  0  0  0  0  0  0  0  0  0  0  0
   -0.5107  -21.2762    9.0771 F   0  0  0  0  0  0  0  0  0  0  0  0
    0.5795  -20.6955   10.9997 F   0  0  0  0  0  0  0  0  0  0  0  0
  1  2  1  0
  1 21  1  0
  2  3  2  0
  2  4  1  0
  4  5  1  0
  4  9  2  0
  5  6  2  0
  5 10  1  0
  6  7  1  0
  7  8  2  0
  8  9  1  0
 10 11  1  0
 11 12  2  0
 11 16  1  0
 12 13  1  0
 13 14  2  0
 13 17  1  0
 14 15  1  0
 15 16  2  0
 17 18  1  0
 17 19  1  0
 17 20  1  0
 21 22  2  0
 21 25  1  0
 22 23  1  0
 23 24  2  0
 24 25  1  0
 24 26  1  0
 26 27  1  0
 26 28  1  0
 26 29  1  0
M  END
>  <Gold.Gold.Protein.RotatedWaterAtoms>  (710) 


>  <Gold.Id.Protein>  (710) 


>  <Gold.PLP.Chemscore.CHOScore>  (710) 
0.0000

>  <Gold.PLP.Chemscore.Hbond>  (710) 
2.0000

>  <Gold.PLP.Chemscore.Internal.Correction>  (710) 
3.3128

>  <Gold.PLP.Chemscore.Metal>  (710) 
0.0000

>  <Gold.PLP.Fitness>  (710) 
54.3149

>  <Gold.PLP.PLP>  (710) 
-52.0930

>  <Gold.PLP.ligand.clash>  (710) 
0.3545

>  <Gold.PLP.ligand.torsion>  (710) 
3.3682

>  <Gold.PLP.part.buried>  (710) 
-5.5501

>  <Gold.PLP.part.hbond>  (710) 
-2.0000

>  <Gold.PLP.part.metal>  (710) 
0.0000

>  <Gold.PLP.part.nonpolar>  (710) 
-44.7140

>  <Gold.PLP.part.repulsive>  (710) 
0.3245

>  <Gold.Protein.RotatedAtoms>  (710) 


>  <Gold.Protein.RotatedTorsions>  (710) 


>  <Gold.Protein.RotatedWaterAtoms>  (710) 


>  <Gold.Version>  (710) 
5.3.0

>  <PLP.Chemscore.CHOScore>  (710) 


>  <PLP.Chemscore.Hbond>  (710) 


>  <PLP.Chemscore.Internal.Correction>  (710) 


>  <PLP.Chemscore.Metal>  (710) 


>  <PLP.Fitness>  (710) 


>  <PLP.PLP>  (710) 


>  <PLP.ligand.clash>  (710) 


>  <PLP.ligand.torsion>  (710) 


>  <PLP.part.buried>  (710) 


>  <PLP.part.hbond>  (710) 


>  <PLP.part.metal>  (710) 


>  <PLP.part.nonpolar>  (710) 


>  <PLP.part.repulsive>  (710) 


>  <Version>  (710) 


$$$$
3710|Compound_541|Compounds_3D_F|sdf|153|dock10|1
     RDKit          3D

 29 31  0  0  0  0  0  0  0  0999 V2000
   -8.4707  -16.1917   11.8156 N   0  0  0  0  0  0  0  0  0  0  0  0
   -8.6620  -14.8639   11.9427 C   0  0  0  0  0  0  0  0  0  0  0  0
   -9.7846  -14.4018   11.8768 O   0  0  0  0  0  0  0  0  0  0  0  0
   -7.5094  -13.9714   12.1603 C   0  0  0  0  0  0  0  0  0  0  0  0
   -6.2753  -14.4873   12.5931 C   0  0  0  0  0  0  0  0  0  0  0  0
   -5.2444  -13.6802   12.7877 N   0  0  0  0  0  0  0  0  0  0  0  0
   -5.3315  -12.3807   12.5852 C   0  0  0  0  0  0  0  0  0  0  0  0
   -6.5118  -11.7985   12.1586 C   0  0  0  0  0  0  0  0  0  0  0  0
   -7.6213  -12.5945   11.9342 C   0  0  0  0  0  0  0  0  0  0  0  0
   -6.1399  -15.8460   12.8182 N   0  0  0  0  0  0  0  0  0  0  0  0
   -5.3022  -16.6086   11.9997 C   0  0  0  0  0  0  0  0  0  0  0  0
   -5.8450  -17.4329   11.0223 C   0  0  0  0  0  0  0  0  0  0  0  0
   -5.0150  -18.1854   10.2153 C   0  0  0  0  0  0  0  0  0  0  0  0
   -3.6432  -18.1203   10.3806 C   0  0  0  0  0  0  0  0  0  0  0  0
   -3.0989  -17.3010   11.3528 C   0  0  0  0  0  0  0  0  0  0  0  0
   -3.9228  -16.5409   12.1585 C   0  0  0  0  0  0  0  0  0  0  0  0
   -5.6037  -19.0793    9.1544 C   0  0  0  0  0  0  0  0  0  0  0  0
   -6.7949  -18.5199    8.6813 F   0  0  0  0  0  0  0  0  0  0  0  0
   -4.6967  -19.2078    8.0965 F   0  0  0  0  0  0  0  0  0  0  0  0
   -5.8651  -20.3409    9.7007 F   0  0  0  0  0  0  0  0  0  0  0  0
   -9.5604  -17.0351   11.6036 C   0  0  0  0  0  0  0  0  0  0  0  0
  -10.7240  -16.9800   12.1981 N   0  0  0  0  0  0  0  0  0  0  0  0
  -11.4661  -17.8478   11.8012 O   0  0  0  0  0  0  0  0  0  0  0  0
  -10.8811  -18.6121   10.8676 C   0  0  0  0  0  0  0  0  0  0  0  0
   -9.6330  -18.1222   10.6920 C   0  0  0  0  0  0  0  0  0  0  0  0
  -11.4977  -19.7848   10.1491 C   0  0  0  0  0  0  0  0  0  0  0  0
  -12.7239  -19.3137    9.3631 C   0  0  0  0  0  0  0  0  0  0  0  0
  -10.4750  -20.3880    9.1845 C   0  0  0  0  0  0  0  0  0  0  0  0
  -11.9226  -20.8430   11.1700 C   0  0  0  0  0  0  0  0  0  0  0  0
  1  2  1  0
  1 21  1  0
  2  3  2  0
  2  4  1  0
  4  5  1  0
  4  9  2  0
  5  6  2  0
  5 10  1  0
  6  7  1  0
  7  8  2  0
  8  9  1  0
 10 11  1  0
 11 12  2  0
 11 16  1  0
 12 13  1  0
 13 14  2  0
 13 17  1  0
 14 15  1  0
 15 16  2  0
 17 18  1  0
 17 19  1  0
 17 20  1  0
 21 22  2  0
 21 25  1  0
 22 23  1  0
 23 24  1  0
 24 25  2  0
 24 26  1  0
 26 27  1  0
 26 28  1  0
 26 29  1  0
M  END
>  <Gold.Gold.Protein.RotatedWaterAtoms>  (711) 


>  <Gold.Id.Protein>  (711) 


>  <Gold.PLP.Chemscore.CHOScore>  (711) 
0.8782

>  <Gold.PLP.Chemscore.Hbond>  (711) 
1.0187

>  <Gold.PLP.Chemscore.Internal.Correction>  (711) 
3.3741

>  <Gold.PLP.Chemscore.Metal>  (711) 
0.0000

>  <Gold.PLP.Fitness>  (711) 
63.2480

>  <Gold.PLP.PLP>  (711) 
-60.4252

>  <Gold.PLP.ligand.clash>  (711) 
0.3521

>  <Gold.PLP.ligand.torsion>  (711) 
2.9448

>  <Gold.PLP.part.buried>  (711) 
-11.0672

>  <Gold.PLP.part.hbond>  (711) 
-2.6537

>  <Gold.PLP.part.metal>  (711) 
0.0000

>  <Gold.PLP.part.nonpolar>  (711) 
-47.3903

>  <Gold.PLP.part.repulsive>  (711) 
0.6423

>  <Gold.Protein.RotatedAtoms>  (711) 


>  <Gold.Protein.RotatedTorsions>  (711) 


>  <Gold.Protein.RotatedWaterAtoms>  (711) 


>  <Gold.Version>  (711) 
5.3.0

>  <PLP.Chemscore.CHOScore>  (711) 


>  <PLP.Chemscore.Hbond>  (711) 


>  <PLP.Chemscore.Internal.Correction>  (711) 


>  <PLP.Chemscore.Metal>  (711) 


>  <PLP.Fitness>  (711) 


>  <PLP.PLP>  (711) 


>  <PLP.ligand.clash>  (711) 


>  <PLP.ligand.torsion>  (711) 


>  <PLP.part.buried>  (711) 


>  <PLP.part.hbond>  (711) 


>  <PLP.part.metal>  (711) 


>  <PLP.part.nonpolar>  (711) 


>  <PLP.part.repulsive>  (711) 


>  <Version>  (711) 


$$$$
3711|Compound_542|Compounds_3D_F|sdf|154|dock10|1
     RDKit          3D

 23 25  0  0  0  0  0  0  0  0999 V2000
  -13.7619  -20.4636   14.1924 O   0  0  0  0  0  0  0  0  0  0  0  0
  -12.8074  -20.7598   13.2795 C   0  0  0  0  0  0  0  0  0  0  0  0
  -12.8001  -22.0084   12.6273 C   0  0  0  0  0  0  0  0  0  0  0  0
  -13.5836  -23.0994   12.6866 N   0  0  0  0  0  0  0  0  0  0  0  0
  -13.1504  -23.9999   11.8757 N   0  0  0  0  0  0  0  0  0  0  0  0
  -12.0089  -23.5211   11.2143 N   0  0  0  0  0  0  0  0  0  0  0  0
  -11.7828  -22.2588   11.6876 C   0  0  0  0  0  0  0  0  0  0  0  0
  -10.8736  -21.3195   11.4498 N   0  0  0  0  0  0  0  0  0  0  0  0
  -10.9205  -20.1616   12.0872 C   0  0  0  0  0  0  0  0  0  0  0  0
  -11.8642  -19.8798   12.9756 N   0  0  0  0  0  0  0  0  0  0  0  0
   -9.9521  -19.2053   11.8118 N   0  0  0  0  0  0  0  0  0  0  0  0
  -10.2575  -17.8954   11.8906 C   0  0  0  0  0  0  0  0  0  0  0  0
  -11.3802  -17.5512   12.2012 O   0  0  0  0  0  0  0  0  0  0  0  0
   -9.2243  -16.8757   11.5968 C   0  0  0  0  0  0  0  0  0  0  0  0
   -9.5792  -15.7139   11.0620 N   0  0  0  0  0  0  0  0  0  0  0  0
   -8.6929  -14.7823   10.7863 C   0  0  0  0  0  0  0  0  0  0  0  0
   -7.3462  -14.9814   11.0468 C   0  0  0  0  0  0  0  0  0  0  0  0
   -6.9321  -16.1795   11.6056 C   0  0  0  0  0  0  0  0  0  0  0  0
   -7.8881  -17.1424   11.8901 C   0  0  0  0  0  0  0  0  0  0  0  0
   -5.4751  -16.4295   11.9027 C   0  0  0  0  0  0  0  0  0  0  0  0
   -4.8573  -16.9766   10.7731 F   0  0  0  0  0  0  0  0  0  0  0  0
   -4.8537  -15.2216   12.2363 F   0  0  0  0  0  0  0  0  0  0  0  0
   -5.3650  -17.3232   12.9737 F   0  0  0  0  0  0  0  0  0  0  0  0
  1  2  1  0
  2  3  2  0
  2 10  1  0
  3  4  1  0
  3  7  1  0
  4  5  2  0
  5  6  1  0
  6  7  1  0
  7  8  2  0
  8  9  1  0
  9 10  2  0
  9 11  1  0
 11 12  1  0
 12 13  2  0
 12 14  1  0
 14 15  2  0
 14 19  1  0
 15 16  1  0
 16 17  2  0
 17 18  1  0
 18 19  2  0
 18 20  1  0
 20 21  1  0
 20 22  1  0
 20 23  1  0
M  END
>  <Gold.Gold.Protein.RotatedWaterAtoms>  (712) 


>  <Gold.Id.Protein>  (712) 


>  <Gold.PLP.Chemscore.CHOScore>  (712) 
1.0000

>  <Gold.PLP.Chemscore.Hbond>  (712) 
3.9920

>  <Gold.PLP.Chemscore.Internal.Correction>  (712) 
2.6241

>  <Gold.PLP.Chemscore.Metal>  (712) 
0.0000

>  <Gold.PLP.Fitness>  (712) 
52.4299

>  <Gold.PLP.PLP>  (712) 
-38.2990

>  <Gold.PLP.ligand.clash>  (712) 
0.0000

>  <Gold.PLP.ligand.torsion>  (712) 
1.7346

>  <Gold.PLP.part.buried>  (712) 
-4.1322

>  <Gold.PLP.part.hbond>  (712) 
-5.7990

>  <Gold.PLP.part.metal>  (712) 
0.0000

>  <Gold.PLP.part.nonpolar>  (712) 
-28.3892

>  <Gold.PLP.part.repulsive>  (712) 
0.2690

>  <Gold.Protein.RotatedAtoms>  (712) 


>  <Gold.Protein.RotatedTorsions>  (712) 


>  <Gold.Protein.RotatedWaterAtoms>  (712) 


>  <Gold.Version>  (712) 
5.3.0

>  <PLP.Chemscore.CHOScore>  (712) 


>  <PLP.Chemscore.Hbond>  (712) 


>  <PLP.Chemscore.Internal.Correction>  (712) 


>  <PLP.Chemscore.Metal>  (712) 


>  <PLP.Fitness>  (712) 


>  <PLP.PLP>  (712) 


>  <PLP.ligand.clash>  (712) 


>  <PLP.ligand.torsion>  (712) 


>  <PLP.part.buried>  (712) 


>  <PLP.part.hbond>  (712) 


>  <PLP.part.metal>  (712) 


>  <PLP.part.nonpolar>  (712) 


>  <PLP.part.repulsive>  (712) 


>  <Version>  (712) 


$$$$
3712|Compound_546|Compounds_3D_F|sdf|156|dock10|1
     RDKit          3D

 41 45  0  0  0  0  0  0  0  0999 V2000
   -8.6975  -19.4068    7.8807 O   0  0  0  0  0  0  0  0  0  0  0  0
   -9.1629  -20.0058    9.0033 C   0  0  0  0  0  0  0  0  0  0  0  0
  -10.3266  -19.5395    9.6332 C   0  0  0  0  0  0  0  0  0  0  0  0
  -11.2068  -18.5369    9.3872 N   0  0  0  0  0  0  0  0  0  0  0  0
  -12.1324  -18.5389   10.3008 C   0  0  0  0  0  0  0  0  0  0  0  0
  -11.9045  -19.5454   11.1936 N   0  0  0  0  0  0  0  0  0  0  0  0
  -10.7651  -20.1987   10.7955 C   0  0  0  0  0  0  0  0  0  0  0  0
  -10.0682  -21.2314   11.2554 N   0  0  0  0  0  0  0  0  0  0  0  0
   -8.9758  -21.6364   10.6293 C   0  0  0  0  0  0  0  0  0  0  0  0
   -8.5307  -21.0470    9.5270 N   0  0  0  0  0  0  0  0  0  0  0  0
   -8.2728  -22.7205   11.1407 N   0  0  0  0  0  0  0  0  0  0  0  0
   -7.6774  -23.5926   10.3036 C   0  0  0  0  0  0  0  0  0  0  0  0
   -7.7553  -23.4315    9.1018 O   0  0  0  0  0  0  0  0  0  0  0  0
   -6.9313  -24.7436   10.8470 C   0  0  0  0  0  0  0  0  0  0  0  0
   -7.0089  -25.0512   12.2096 C   0  0  0  0  0  0  0  0  0  0  0  0
   -7.7692  -24.2958   13.0325 F   0  0  0  0  0  0  0  0  0  0  0  0
   -6.3064  -26.1332   12.7119 C   0  0  0  0  0  0  0  0  0  0  0  0
   -6.3796  -26.4320   14.0269 F   0  0  0  0  0  0  0  0  0  0  0  0
   -5.5273  -26.9092   11.8696 C   0  0  0  0  0  0  0  0  0  0  0  0
   -5.4456  -26.6097   10.5203 C   0  0  0  0  0  0  0  0  0  0  0  0
   -4.6835  -27.3724    9.7064 F   0  0  0  0  0  0  0  0  0  0  0  0
   -6.1471  -25.5350   10.0012 C   0  0  0  0  0  0  0  0  0  0  0  0
   -6.0657  -25.2461    8.6845 F   0  0  0  0  0  0  0  0  0  0  0  0
   -4.7652  -28.0844   12.4257 C   0  0  0  0  0  0  0  0  0  0  0  0
  -12.7262  -19.8709   12.3617 C   0  0  0  0  0  0  0  0  0  0  0  0
  -11.9049  -19.8908   13.5491 O   0  0  0  0  0  0  0  0  0  0  0  0
  -12.0627  -21.1488   14.1813 C   0  0  0  0  0  0  0  0  0  0  0  0
  -10.8955  -21.6711   14.9917 C   0  0  0  0  0  0  0  0  0  0  0  0
  -11.3474  -22.8804   15.6467 O   0  0  0  0  0  0  0  0  0  0  0  0
  -12.0982  -24.0391   14.7924 P   0  0  0  0  0  0  0  0  0  0  0  0
  -12.9942  -24.8182   15.6762 O   0  0  0  0  0  0  0  0  0  0  0  0
  -11.0109  -25.0144   14.1145 O   0  0  0  0  0  0  0  0  0  0  0  0
  -12.9709  -23.2856   13.6378 O   0  0  0  0  0  0  0  0  0  0  0  0
  -12.3552  -22.1411   13.0244 C   0  0  0  0  0  0  0  0  0  0  0  0
  -13.3399  -21.2876   12.1958 C   0  0  0  0  0  0  0  0  0  0  0  0
  -13.3484  -21.7054   10.8055 O   0  0  0  0  0  0  0  0  0  0  0  0
  -14.2321  -22.6548   10.4600 C   0  0  0  0  0  0  0  0  0  0  0  0
  -14.7837  -23.3065   11.3152 O   0  0  0  0  0  0  0  0  0  0  0  0
  -14.5373  -22.9077    9.0055 C   0  0  0  0  0  0  0  0  0  0  0  0
  -15.0850  -21.6287    8.3688 C   0  0  0  0  0  0  0  0  0  0  0  0
  -14.0061  -20.5451    8.3909 C   0  0  0  0  0  0  0  0  0  0  0  0
  1  2  1  0
  2  3  2  0
  2 10  1  0
  3  4  1  0
  3  7  1  0
  4  5  2  0
  5  6  1  0
  6  7  1  0
  6 25  1  0
  7  8  2  0
  8  9  1  0
  9 10  2  0
  9 11  1  0
 11 12  1  0
 12 13  2  0
 12 14  1  0
 14 15  2  0
 14 22  1  0
 15 16  1  0
 15 17  1  0
 17 18  1  0
 17 19  2  0
 19 20  1  0
 19 24  1  0
 20 21  1  0
 20 22  2  0
 22 23  1  0
 25 26  1  0
 25 35  1  0
 26 27  1  0
 27 28  1  0
 27 34  1  0
 28 29  1  0
 29 30  1  0
 30 31  2  0
 30 32  1  0
 30 33  1  0
 33 34  1  0
 34 35  1  0
 35 36  1  0
 36 37  1  0
 37 38  2  0
 37 39  1  0
 39 40  1  0
 40 41  1  0
M  END
>  <Gold.Gold.Protein.RotatedWaterAtoms>  (713) 


>  <Gold.Id.Protein>  (713) 


>  <Gold.PLP.Chemscore.CHOScore>  (713) 
0.0000

>  <Gold.PLP.Chemscore.Hbond>  (713) 
2.2047

>  <Gold.PLP.Chemscore.Internal.Correction>  (713) 
0.4975

>  <Gold.PLP.Chemscore.Metal>  (713) 
0.0000

>  <Gold.PLP.Fitness>  (713) 
45.1563

>  <Gold.PLP.PLP>  (713) 
-39.7051

>  <Gold.PLP.ligand.clash>  (713) 
0.0000

>  <Gold.PLP.ligand.torsion>  (713) 
0.8301

>  <Gold.PLP.part.buried>  (713) 
-4.6237

>  <Gold.PLP.part.hbond>  (713) 
-6.0762

>  <Gold.PLP.part.metal>  (713) 
0.0000

>  <Gold.PLP.part.nonpolar>  (713) 
-29.2513

>  <Gold.PLP.part.repulsive>  (713) 
0.1091

>  <Gold.Protein.RotatedAtoms>  (713) 


>  <Gold.Protein.RotatedTorsions>  (713) 


>  <Gold.Protein.RotatedWaterAtoms>  (713) 


>  <Gold.Version>  (713) 
5.3.0

>  <PLP.Chemscore.CHOScore>  (713) 


>  <PLP.Chemscore.Hbond>  (713) 


>  <PLP.Chemscore.Internal.Correction>  (713) 


>  <PLP.Chemscore.Metal>  (713) 


>  <PLP.Fitness>  (713) 


>  <PLP.PLP>  (713) 


>  <PLP.ligand.clash>  (713) 


>  <PLP.ligand.torsion>  (713) 


>  <PLP.part.buried>  (713) 


>  <PLP.part.hbond>  (713) 


>  <PLP.part.metal>  (713) 


>  <PLP.part.nonpolar>  (713) 


>  <PLP.part.repulsive>  (713) 


>  <Version>  (713) 


$$$$
3713|Compound_548|Compounds_3D_F|sdf|157|dock10|1
     RDKit          3D

 41 45  0  0  0  0  0  0  0  0999 V2000
   -9.4101  -18.0481    8.9326 O   0  0  0  0  0  0  0  0  0  0  0  0
   -9.7055  -19.0205    9.8285 C   0  0  0  0  0  0  0  0  0  0  0  0
  -10.8039  -18.8887   10.6915 C   0  0  0  0  0  0  0  0  0  0  0  0
  -11.7533  -17.9393   10.8868 N   0  0  0  0  0  0  0  0  0  0  0  0
  -12.5587  -18.3213   11.8347 C   0  0  0  0  0  0  0  0  0  0  0  0
  -12.1764  -19.5423   12.3081 N   0  0  0  0  0  0  0  0  0  0  0  0
  -11.0649  -19.9284   11.6016 C   0  0  0  0  0  0  0  0  0  0  0  0
  -10.2697  -20.9916   11.6139 N   0  0  0  0  0  0  0  0  0  0  0  0
   -9.2450  -21.0739   10.7819 C   0  0  0  0  0  0  0  0  0  0  0  0
   -8.9654  -20.1180    9.9053 N   0  0  0  0  0  0  0  0  0  0  0  0
   -8.4342  -22.2016   10.8257 N   0  0  0  0  0  0  0  0  0  0  0  0
   -7.8398  -22.6480    9.7021 C   0  0  0  0  0  0  0  0  0  0  0  0
   -8.0125  -22.0640    8.6496 O   0  0  0  0  0  0  0  0  0  0  0  0
   -6.9809  -23.8453    9.7488 C   0  0  0  0  0  0  0  0  0  0  0  0
   -6.8763  -24.5891   10.9296 C   0  0  0  0  0  0  0  0  0  0  0  0
   -7.5645  -24.2125   12.0308 F   0  0  0  0  0  0  0  0  0  0  0  0
   -6.0690  -25.7112   10.9673 C   0  0  0  0  0  0  0  0  0  0  0  0
   -5.9686  -26.4305   12.1068 F   0  0  0  0  0  0  0  0  0  0  0  0
   -5.3636  -26.0993    9.8390 C   0  0  0  0  0  0  0  0  0  0  0  0
   -4.5767  -27.1968    9.8817 F   0  0  0  0  0  0  0  0  0  0  0  0
   -5.4620  -25.3655    8.6650 C   0  0  0  0  0  0  0  0  0  0  0  0
   -4.7701  -25.7510    7.5693 F   0  0  0  0  0  0  0  0  0  0  0  0
   -6.2697  -24.2455    8.6114 C   0  0  0  0  0  0  0  0  0  0  0  0
   -6.3649  -23.5333    7.4677 F   0  0  0  0  0  0  0  0  0  0  0  0
  -12.8312  -20.3020   13.3757 C   0  0  0  0  0  0  0  0  0  0  0  0
  -11.8829  -20.5870   14.4273 O   0  0  0  0  0  0  0  0  0  0  0  0
  -11.8612  -21.9864   14.6422 C   0  0  0  0  0  0  0  0  0  0  0  0
  -10.5686  -22.5923   15.1499 C   0  0  0  0  0  0  0  0  0  0  0  0
  -10.8403  -23.9875   15.4255 O   0  0  0  0  0  0  0  0  0  0  0  0
  -11.5807  -24.9095   14.3136 P   0  0  0  0  0  0  0  0  0  0  0  0
  -12.3034  -26.0190   14.9759 O   0  0  0  0  0  0  0  0  0  0  0  0
  -10.4986  -25.4992   13.2787 O   0  0  0  0  0  0  0  0  0  0  0  0
  -12.6394  -23.9472   13.5287 O   0  0  0  0  0  0  0  0  0  0  0  0
  -12.1962  -22.6059   13.2594 C   0  0  0  0  0  0  0  0  0  0  0  0
  -13.3362  -21.6614   12.8227 C   0  0  0  0  0  0  0  0  0  0  0  0
  -13.4658  -21.6331   11.3772 O   0  0  0  0  0  0  0  0  0  0  0  0
  -14.0289  -22.7030   10.7943 C   0  0  0  0  0  0  0  0  0  0  0  0
  -14.4173  -23.6258   11.4711 O   0  0  0  0  0  0  0  0  0  0  0  0
  -14.1793  -22.7532    9.2959 C   0  0  0  0  0  0  0  0  0  0  0  0
  -15.0750  -21.6021    8.8342 C   0  0  0  0  0  0  0  0  0  0  0  0
  -14.3255  -20.2776    8.9907 C   0  0  0  0  0  0  0  0  0  0  0  0
  1  2  1  0
  2  3  2  0
  2 10  1  0
  3  4  1  0
  3  7  1  0
  4  5  2  0
  5  6  1  0
  6  7  1  0
  6 25  1  0
  7  8  2  0
  8  9  1  0
  9 10  2  0
  9 11  1  0
 11 12  1  0
 12 13  2  0
 12 14  1  0
 14 15  2  0
 14 23  1  0
 15 16  1  0
 15 17  1  0
 17 18  1  0
 17 19  2  0
 19 20  1  0
 19 21  1  0
 21 22  1  0
 21 23  2  0
 23 24  1  0
 25 26  1  0
 25 35  1  0
 26 27  1  0
 27 28  1  0
 27 34  1  0
 28 29  1  0
 29 30  1  0
 30 31  2  0
 30 32  1  0
 30 33  1  0
 33 34  1  0
 34 35  1  0
 35 36  1  0
 36 37  1  0
 37 38  2  0
 37 39  1  0
 39 40  1  0
 40 41  1  0
M  END
>  <Gold.Gold.Protein.RotatedWaterAtoms>  (714) 


>  <Gold.Id.Protein>  (714) 


>  <Gold.PLP.Chemscore.CHOScore>  (714) 
0.0000

>  <Gold.PLP.Chemscore.Hbond>  (714) 
2.7670

>  <Gold.PLP.Chemscore.Internal.Correction>  (714) 
0.5010

>  <Gold.PLP.Chemscore.Metal>  (714) 
0.0000

>  <Gold.PLP.Fitness>  (714) 
49.6311

>  <Gold.PLP.PLP>  (714) 
-41.4835

>  <Gold.PLP.ligand.clash>  (714) 
0.0000

>  <Gold.PLP.ligand.torsion>  (714) 
0.3272

>  <Gold.PLP.part.buried>  (714) 
-5.0276

>  <Gold.PLP.part.hbond>  (714) 
-5.7530

>  <Gold.PLP.part.metal>  (714) 
0.0000

>  <Gold.PLP.part.nonpolar>  (714) 
-31.7494

>  <Gold.PLP.part.repulsive>  (714) 
0.1088

>  <Gold.Protein.RotatedAtoms>  (714) 


>  <Gold.Protein.RotatedTorsions>  (714) 


>  <Gold.Protein.RotatedWaterAtoms>  (714) 


>  <Gold.Version>  (714) 
5.3.0

>  <PLP.Chemscore.CHOScore>  (714) 


>  <PLP.Chemscore.Hbond>  (714) 


>  <PLP.Chemscore.Internal.Correction>  (714) 


>  <PLP.Chemscore.Metal>  (714) 


>  <PLP.Fitness>  (714) 


>  <PLP.PLP>  (714) 


>  <PLP.ligand.clash>  (714) 


>  <PLP.ligand.torsion>  (714) 


>  <PLP.part.buried>  (714) 


>  <PLP.part.hbond>  (714) 


>  <PLP.part.metal>  (714) 


>  <PLP.part.nonpolar>  (714) 


>  <PLP.part.repulsive>  (714) 


>  <Version>  (714) 


$$$$
3714|Compound_550|Compounds_3D_F|sdf|158|dock10|1
     RDKit          3D

 40 44  0  0  0  0  0  0  0  0999 V2000
   -8.2540  -23.4300    6.4002 O   0  0  0  0  0  0  0  0  0  0  0  0
   -9.0194  -22.6894    7.2376 C   0  0  0  0  0  0  0  0  0  0  0  0
  -10.4152  -22.8315    7.2452 C   0  0  0  0  0  0  0  0  0  0  0  0
  -11.2982  -23.6001    6.5594 N   0  0  0  0  0  0  0  0  0  0  0  0
  -12.5069  -23.3349    6.9626 C   0  0  0  0  0  0  0  0  0  0  0  0
  -12.4755  -22.3772    7.9331 N   0  0  0  0  0  0  0  0  0  0  0  0
  -11.1611  -22.0378    8.1348 C   0  0  0  0  0  0  0  0  0  0  0  0
  -10.5247  -21.1874    8.9315 N   0  0  0  0  0  0  0  0  0  0  0  0
   -9.2071  -21.0852    8.8901 C   0  0  0  0  0  0  0  0  0  0  0  0
   -8.4650  -21.8184    8.0696 N   0  0  0  0  0  0  0  0  0  0  0  0
   -8.5766  -20.1837    9.7388 N   0  0  0  0  0  0  0  0  0  0  0  0
   -8.3822  -18.9100    9.3444 C   0  0  0  0  0  0  0  0  0  0  0  0
   -8.7568  -18.5495    8.2452 O   0  0  0  0  0  0  0  0  0  0  0  0
   -7.7128  -17.9534   10.2467 C   0  0  0  0  0  0  0  0  0  0  0  0
   -8.4038  -16.8370   10.7233 C   0  0  0  0  0  0  0  0  0  0  0  0
   -7.7726  -15.9447   11.5659 C   0  0  0  0  0  0  0  0  0  0  0  0
   -8.4414  -14.8654   12.0279 F   0  0  0  0  0  0  0  0  0  0  0  0
   -6.4526  -16.1545   11.9424 C   0  0  0  0  0  0  0  0  0  0  0  0
   -5.8408  -15.2781   12.7683 F   0  0  0  0  0  0  0  0  0  0  0  0
   -5.7602  -17.2606   11.4731 C   0  0  0  0  0  0  0  0  0  0  0  0
   -4.4757  -17.4588   11.8437 F   0  0  0  0  0  0  0  0  0  0  0  0
   -6.3842  -18.1641   10.6317 C   0  0  0  0  0  0  0  0  0  0  0  0
   -5.7096  -19.2422   10.1756 F   0  0  0  0  0  0  0  0  0  0  0  0
  -13.6325  -21.8150    8.6337 C   0  0  0  0  0  0  0  0  0  0  0  0
  -13.8373  -20.4460    8.2224 O   0  0  0  0  0  0  0  0  0  0  0  0
  -13.8442  -19.6276    9.3797 C   0  0  0  0  0  0  0  0  0  0  0  0
  -13.3792  -18.1953    9.2202 C   0  0  0  0  0  0  0  0  0  0  0  0
  -13.6145  -17.5362   10.4878 O   0  0  0  0  0  0  0  0  0  0  0  0
  -13.1064  -18.2196   11.8701 P   0  0  0  0  0  0  0  0  0  0  0  0
  -13.9521  -17.7677   12.9975 O   0  0  0  0  0  0  0  0  0  0  0  0
  -11.5691  -17.8297   12.1447 O   0  0  0  0  0  0  0  0  0  0  0  0
  -13.2489  -19.8339   11.6795 O   0  0  0  0  0  0  0  0  0  0  0  0
  -12.9068  -20.3514   10.3833 C   0  0  0  0  0  0  0  0  0  0  0  0
  -13.3693  -21.8083   10.1639 C   0  0  0  0  0  0  0  0  0  0  0  0
  -12.3249  -22.7479   10.5291 O   0  0  0  0  0  0  0  0  0  0  0  0
  -12.6694  -23.7541   11.3481 C   0  0  0  0  0  0  0  0  0  0  0  0
  -13.8208  -23.8879   11.6888 O   0  0  0  0  0  0  0  0  0  0  0  0
  -11.6199  -24.7160   11.8432 C   0  0  0  0  0  0  0  0  0  0  0  0
  -10.8842  -25.3269   10.6490 C   0  0  0  0  0  0  0  0  0  0  0  0
  -10.0043  -24.2603    9.9923 C   0  0  0  0  0  0  0  0  0  0  0  0
  1  2  1  0
  2  3  2  0
  2 10  1  0
  3  4  1  0
  3  7  1  0
  4  5  2  0
  5  6  1  0
  6  7  1  0
  6 24  1  0
  7  8  2  0
  8  9  1  0
  9 10  2  0
  9 11  1  0
 11 12  1  0
 12 13  2  0
 12 14  1  0
 14 15  2  0
 14 22  1  0
 15 16  1  0
 16 17  1  0
 16 18  2  0
 18 19  1  0
 18 20  1  0
 20 21  1  0
 20 22  2  0
 22 23  1  0
 24 25  1  0
 24 34  1  0
 25 26  1  0
 26 27  1  0
 26 33  1  0
 27 28  1  0
 28 29  1  0
 29 30  2  0
 29 31  1  0
 29 32  1  0
 32 33  1  0
 33 34  1  0
 34 35  1  0
 35 36  1  0
 36 37  2  0
 36 38  1  0
 38 39  1  0
 39 40  1  0
M  END
>  <Gold.Gold.Protein.RotatedWaterAtoms>  (715) 


>  <Gold.Id.Protein>  (715) 


>  <Gold.PLP.Chemscore.CHOScore>  (715) 
0.0000

>  <Gold.PLP.Chemscore.Hbond>  (715) 
3.9048

>  <Gold.PLP.Chemscore.Internal.Correction>  (715) 
0.5565

>  <Gold.PLP.Chemscore.Metal>  (715) 
0.0000

>  <Gold.PLP.Fitness>  (715) 
53.0767

>  <Gold.PLP.PLP>  (715) 
-46.7438

>  <Gold.PLP.ligand.clash>  (715) 
0.0000

>  <Gold.PLP.ligand.torsion>  (715) 
2.9690

>  <Gold.PLP.part.buried>  (715) 
-2.9493

>  <Gold.PLP.part.hbond>  (715) 
-6.5086

>  <Gold.PLP.part.metal>  (715) 
0.0000

>  <Gold.PLP.part.nonpolar>  (715) 
-40.1665

>  <Gold.PLP.part.repulsive>  (715) 
1.9180

>  <Gold.Protein.RotatedAtoms>  (715) 


>  <Gold.Protein.RotatedTorsions>  (715) 


>  <Gold.Protein.RotatedWaterAtoms>  (715) 


>  <Gold.Version>  (715) 
5.3.0

>  <PLP.Chemscore.CHOScore>  (715) 


>  <PLP.Chemscore.Hbond>  (715) 


>  <PLP.Chemscore.Internal.Correction>  (715) 


>  <PLP.Chemscore.Metal>  (715) 


>  <PLP.Fitness>  (715) 


>  <PLP.PLP>  (715) 


>  <PLP.ligand.clash>  (715) 


>  <PLP.ligand.torsion>  (715) 


>  <PLP.part.buried>  (715) 


>  <PLP.part.hbond>  (715) 


>  <PLP.part.metal>  (715) 


>  <PLP.part.nonpolar>  (715) 


>  <PLP.part.repulsive>  (715) 


>  <Version>  (715) 


$$$$
3715|Compound_552|Compounds_3D_F|sdf|159|dock10|1
     RDKit          3D

 40 44  0  0  0  0  0  0  0  0999 V2000
  -14.7957  -21.1323   15.0721 O   0  0  0  0  0  0  0  0  0  0  0  0
  -13.5622  -21.4312   14.5981 C   0  0  0  0  0  0  0  0  0  0  0  0
  -12.9430  -20.6085   13.6451 C   0  0  0  0  0  0  0  0  0  0  0  0
  -13.2916  -19.4657   13.0025 N   0  0  0  0  0  0  0  0  0  0  0  0
  -12.3316  -19.1091   12.2011 C   0  0  0  0  0  0  0  0  0  0  0  0
  -11.3031  -20.0019   12.2794 N   0  0  0  0  0  0  0  0  0  0  0  0
  -11.6621  -20.9658   13.1877 C   0  0  0  0  0  0  0  0  0  0  0  0
  -11.0867  -22.0613   13.6687 N   0  0  0  0  0  0  0  0  0  0  0  0
  -11.7076  -22.8086   14.5656 C   0  0  0  0  0  0  0  0  0  0  0  0
  -12.9135  -22.5047   15.0281 N   0  0  0  0  0  0  0  0  0  0  0  0
  -11.0723  -23.9479   15.0451 N   0  0  0  0  0  0  0  0  0  0  0  0
  -11.6392  -25.1580   14.8719 C   0  0  0  0  0  0  0  0  0  0  0  0
  -12.7067  -25.2531   14.2975 O   0  0  0  0  0  0  0  0  0  0  0  0
  -10.9655  -26.3675   15.3812 C   0  0  0  0  0  0  0  0  0  0  0  0
   -9.6398  -26.3009   15.8161 C   0  0  0  0  0  0  0  0  0  0  0  0
   -9.0130  -27.4351   16.2911 C   0  0  0  0  0  0  0  0  0  0  0  0
   -7.7311  -27.3717   16.7122 F   0  0  0  0  0  0  0  0  0  0  0  0
   -9.6983  -28.6427   16.3376 C   0  0  0  0  0  0  0  0  0  0  0  0
   -9.0807  -29.7491   16.8039 F   0  0  0  0  0  0  0  0  0  0  0  0
  -11.0136  -28.7162   15.9083 C   0  0  0  0  0  0  0  0  0  0  0  0
  -11.8631  -30.2290   15.9705 Cl  0  0  0  0  0  0  0  0  0  0  0  0
  -11.6535  -27.5847   15.4344 C   0  0  0  0  0  0  0  0  0  0  0  0
  -12.9352  -27.6566   15.0164 F   0  0  0  0  0  0  0  0  0  0  0  0
  -10.0455  -19.9440   11.5297 C   0  0  0  0  0  0  0  0  0  0  0  0
   -9.2587  -18.8196   11.9789 O   0  0  0  0  0  0  0  0  0  0  0  0
   -8.9475  -18.0140   10.8550 C   0  0  0  0  0  0  0  0  0  0  0  0
   -8.7484  -16.5324   11.0962 C   0  0  0  0  0  0  0  0  0  0  0  0
   -8.3034  -15.9611    9.8423 O   0  0  0  0  0  0  0  0  0  0  0  0
   -9.1087  -16.2792    8.4688 P   0  0  0  0  0  0  0  0  0  0  0  0
   -8.1966  -16.1629    7.3092 O   0  0  0  0  0  0  0  0  0  0  0  0
  -10.3413  -15.2566    8.3041 O   0  0  0  0  0  0  0  0  0  0  0  0
   -9.6632  -17.8091    8.5896 O   0  0  0  0  0  0  0  0  0  0  0  0
  -10.1434  -18.2086    9.8847 C   0  0  0  0  0  0  0  0  0  0  0  0
  -10.3401  -19.7343   10.0198 C   0  0  0  0  0  0  0  0  0  0  0  0
  -11.6995  -20.1167    9.6839 O   0  0  0  0  0  0  0  0  0  0  0  0
  -11.8704  -21.3175    9.1091 C   0  0  0  0  0  0  0  0  0  0  0  0
  -10.9129  -21.9450    8.7253 O   0  0  0  0  0  0  0  0  0  0  0  0
  -13.2582  -21.8822    8.9421 C   0  0  0  0  0  0  0  0  0  0  0  0
  -14.1129  -20.9028    8.1365 C   0  0  0  0  0  0  0  0  0  0  0  0
  -14.3258  -19.6241    8.9494 C   0  0  0  0  0  0  0  0  0  0  0  0
  1  2  1  0
  2  3  2  0
  2 10  1  0
  3  4  1  0
  3  7  1  0
  4  5  2  0
  5  6  1  0
  6  7  1  0
  6 24  1  0
  7  8  2  0
  8  9  1  0
  9 10  2  0
  9 11  1  0
 11 12  1  0
 12 13  2  0
 12 14  1  0
 14 15  2  0
 14 22  1  0
 15 16  1  0
 16 17  1  0
 16 18  2  0
 18 19  1  0
 18 20  1  0
 20 21  1  0
 20 22  2  0
 22 23  1  0
 24 25  1  0
 24 34  1  0
 25 26  1  0
 26 27  1  0
 26 33  1  0
 27 28  1  0
 28 29  1  0
 29 30  2  0
 29 31  1  0
 29 32  1  0
 32 33  1  0
 33 34  1  0
 34 35  1  0
 35 36  1  0
 36 37  2  0
 36 38  1  0
 38 39  1  0
 39 40  1  0
M  END
>  <Gold.Gold.Protein.RotatedWaterAtoms>  (716) 


>  <Gold.Id.Protein>  (716) 


>  <Gold.PLP.Chemscore.CHOScore>  (716) 
0.0000

>  <Gold.PLP.Chemscore.Hbond>  (716) 
2.4602

>  <Gold.PLP.Chemscore.Internal.Correction>  (716) 
0.6572

>  <Gold.PLP.Chemscore.Metal>  (716) 
0.0000

>  <Gold.PLP.Fitness>  (716) 
47.5228

>  <Gold.PLP.PLP>  (716) 
-42.3073

>  <Gold.PLP.ligand.clash>  (716) 
0.0000

>  <Gold.PLP.ligand.torsion>  (716) 
1.4112

>  <Gold.PLP.part.buried>  (716) 
-3.8837

>  <Gold.PLP.part.hbond>  (716) 
-4.7323

>  <Gold.PLP.part.metal>  (716) 
0.0000

>  <Gold.PLP.part.nonpolar>  (716) 
-34.4014

>  <Gold.PLP.part.repulsive>  (716) 
1.2232

>  <Gold.Protein.RotatedAtoms>  (716) 


>  <Gold.Protein.RotatedTorsions>  (716) 


>  <Gold.Protein.RotatedWaterAtoms>  (716) 


>  <Gold.Version>  (716) 
5.3.0

>  <PLP.Chemscore.CHOScore>  (716) 


>  <PLP.Chemscore.Hbond>  (716) 


>  <PLP.Chemscore.Internal.Correction>  (716) 


>  <PLP.Chemscore.Metal>  (716) 


>  <PLP.Fitness>  (716) 


>  <PLP.PLP>  (716) 


>  <PLP.ligand.clash>  (716) 


>  <PLP.ligand.torsion>  (716) 


>  <PLP.part.buried>  (716) 


>  <PLP.part.hbond>  (716) 


>  <PLP.part.metal>  (716) 


>  <PLP.part.nonpolar>  (716) 


>  <PLP.part.repulsive>  (716) 


>  <Version>  (716) 


$$$$
3716|Compound_553|Compounds_3D_F|sdf|160|dock10|1
     RDKit          3D

 38 42  0  0  0  0  0  0  0  0999 V2000
   -8.6729  -19.1845    7.6584 O   0  0  0  0  0  0  0  0  0  0  0  0
   -9.0111  -18.7660    8.9018 C   0  0  0  0  0  0  0  0  0  0  0  0
   -9.6911  -19.6193    9.7838 C   0  0  0  0  0  0  0  0  0  0  0  0
  -10.1492  -20.8943    9.7126 N   0  0  0  0  0  0  0  0  0  0  0  0
  -10.7216  -21.2122   10.8371 C   0  0  0  0  0  0  0  0  0  0  0  0
  -10.6663  -20.1596   11.7025 N   0  0  0  0  0  0  0  0  0  0  0  0
  -10.0174  -19.1335   11.0625 C   0  0  0  0  0  0  0  0  0  0  0  0
   -9.6738  -17.8935   11.3899 N   0  0  0  0  0  0  0  0  0  0  0  0
   -9.0342  -17.1229   10.5264 C   0  0  0  0  0  0  0  0  0  0  0  0
   -8.7028  -17.5433    9.3119 N   0  0  0  0  0  0  0  0  0  0  0  0
   -8.6916  -15.8308   10.9051 N   0  0  0  0  0  0  0  0  0  0  0  0
   -7.4066  -15.5244   11.1696 C   0  0  0  0  0  0  0  0  0  0  0  0
   -6.5465  -16.3782   11.0767 O   0  0  0  0  0  0  0  0  0  0  0  0
   -7.0432  -14.1510   11.5716 C   0  0  0  0  0  0  0  0  0  0  0  0
   -7.9070  -13.0885   11.3000 C   0  0  0  0  0  0  0  0  0  0  0  0
   -7.5608  -11.8072   11.6781 C   0  0  0  0  0  0  0  0  0  0  0  0
   -8.7305  -10.3675   11.3111 Br  0  0  0  0  0  0  0  0  0  0  0  0
   -6.3600  -11.5725   12.3264 C   0  0  0  0  0  0  0  0  0  0  0  0
   -5.4979  -12.6187   12.5993 C   0  0  0  0  0  0  0  0  0  0  0  0
   -5.8335  -13.9081   12.2319 C   0  0  0  0  0  0  0  0  0  0  0  0
   -4.9912  -14.9304   12.4996 F   0  0  0  0  0  0  0  0  0  0  0  0
  -11.1999  -20.1299   13.0663 C   0  0  0  0  0  0  0  0  0  0  0  0
  -10.3585  -20.9141   13.9394 O   0  0  0  0  0  0  0  0  0  0  0  0
  -11.1648  -21.8862   14.5828 C   0  0  0  0  0  0  0  0  0  0  0  0
  -10.4983  -23.1848   14.9859 C   0  0  0  0  0  0  0  0  0  0  0  0
  -11.4759  -23.9389   15.7424 O   0  0  0  0  0  0  0  0  0  0  0  0
  -12.9759  -24.1487   15.1574 P   0  0  0  0  0  0  0  0  0  0  0  0
  -13.9290  -24.3491   16.2717 O   0  0  0  0  0  0  0  0  0  0  0  0
  -13.0092  -25.4192   14.1696 O   0  0  0  0  0  0  0  0  0  0  0  0
  -13.3571  -22.7912   14.3362 O   0  0  0  0  0  0  0  0  0  0  0  0
  -12.2979  -22.1968   13.5682 C   0  0  0  0  0  0  0  0  0  0  0  0
  -12.6173  -20.7633   13.0911 C   0  0  0  0  0  0  0  0  0  0  0  0
  -13.2190  -20.7749   11.7702 O   0  0  0  0  0  0  0  0  0  0  0  0
  -13.5803  -19.5894   11.2547 C   0  0  0  0  0  0  0  0  0  0  0  0
  -13.1648  -18.5662   11.7444 O   0  0  0  0  0  0  0  0  0  0  0  0
  -14.5052  -19.5349   10.0656 C   0  0  0  0  0  0  0  0  0  0  0  0
  -14.5682  -20.9133    9.4051 C   0  0  0  0  0  0  0  0  0  0  0  0
  -13.2708  -21.1693    8.6344 C   0  0  0  0  0  0  0  0  0  0  0  0
  1  2  1  0
  2  3  2  0
  2 10  1  0
  3  4  1  0
  3  7  1  0
  4  5  2  0
  5  6  1  0
  6  7  1  0
  6 22  1  0
  7  8  2  0
  8  9  1  0
  9 10  2  0
  9 11  1  0
 11 12  1  0
 12 13  2  0
 12 14  1  0
 14 15  2  0
 14 20  1  0
 15 16  1  0
 16 17  1  0
 16 18  2  0
 18 19  1  0
 19 20  2  0
 20 21  1  0
 22 23  1  0
 22 32  1  0
 23 24  1  0
 24 25  1  0
 24 31  1  0
 25 26  1  0
 26 27  1  0
 27 28  2  0
 27 29  1  0
 27 30  1  0
 30 31  1  0
 31 32  1  0
 32 33  1  0
 33 34  1  0
 34 35  2  0
 34 36  1  0
 36 37  1  0
 37 38  1  0
M  END
>  <Gold.Gold.Protein.RotatedWaterAtoms>  (717) 


>  <Gold.Id.Protein>  (717) 


>  <Gold.PLP.Chemscore.CHOScore>  (717) 
0.0000

>  <Gold.PLP.Chemscore.Hbond>  (717) 
1.1744

>  <Gold.PLP.Chemscore.Internal.Correction>  (717) 
0.5366

>  <Gold.PLP.Chemscore.Metal>  (717) 
0.0000

>  <Gold.PLP.Fitness>  (717) 
62.6573

>  <Gold.PLP.PLP>  (717) 
-63.7138

>  <Gold.PLP.ligand.clash>  (717) 
1.7424

>  <Gold.PLP.ligand.torsion>  (717) 
1.6870

>  <Gold.PLP.part.buried>  (717) 
1.2282

>  <Gold.PLP.part.hbond>  (717) 
-4.1707

>  <Gold.PLP.part.metal>  (717) 
0.0000

>  <Gold.PLP.part.nonpolar>  (717) 
-60.5041

>  <Gold.PLP.part.repulsive>  (717) 
0.3599

>  <Gold.Protein.RotatedAtoms>  (717) 


>  <Gold.Protein.RotatedTorsions>  (717) 


>  <Gold.Protein.RotatedWaterAtoms>  (717) 


>  <Gold.Version>  (717) 
5.3.0

>  <PLP.Chemscore.CHOScore>  (717) 


>  <PLP.Chemscore.Hbond>  (717) 


>  <PLP.Chemscore.Internal.Correction>  (717) 


>  <PLP.Chemscore.Metal>  (717) 


>  <PLP.Fitness>  (717) 


>  <PLP.PLP>  (717) 


>  <PLP.ligand.clash>  (717) 


>  <PLP.ligand.torsion>  (717) 


>  <PLP.part.buried>  (717) 


>  <PLP.part.hbond>  (717) 


>  <PLP.part.metal>  (717) 


>  <PLP.part.nonpolar>  (717) 


>  <PLP.part.repulsive>  (717) 


>  <Version>  (717) 


$$$$
3717|Compound_562|Compounds_3D_F|sdf|164|dock10|1
     RDKit          3D

 38 43  0  0  0  0  0  0  0  0999 V2000
  -10.3169  -16.4408    9.1881 O   0  0  0  0  0  0  0  0  0  0  0  0
   -9.5358  -17.5620    9.6064 C   0  0  0  0  0  0  0  0  0  0  0  0
   -8.9046  -17.3002   10.9965 C   0  0  0  0  0  0  0  0  0  0  0  0
   -9.4489  -18.2885   11.9055 O   0  0  0  0  0  0  0  0  0  0  0  0
  -10.7223  -18.6381   11.3678 C   0  0  0  0  0  0  0  0  0  0  0  0
  -11.3347  -19.9330   11.8622 C   0  0  0  0  0  0  0  0  0  0  0  0
  -12.6398  -20.0397   11.2446 O   0  0  0  0  0  0  0  0  0  0  0  0
  -12.8045  -19.8327    9.6430 P   0  0  0  0  0  0  0  0  0  0  0  0
  -12.5172  -21.2190    8.8762 O   0  0  0  0  0  0  0  0  0  0  0  0
  -14.5266  -19.2351    9.2520 S   0  0  0  0  0  0  0  0  0  0  0  0
  -11.7083  -18.7096    9.1950 O   0  0  0  0  0  0  0  0  0  0  0  0
  -10.4298  -18.7850    9.8446 C   0  0  0  0  0  0  0  0  0  0  0  0
   -7.4485  -17.4383   10.9170 N   0  0  0  0  0  0  0  0  0  0  0  0
   -6.5244  -16.5049   11.2962 C   0  0  0  0  0  0  0  0  0  0  0  0
   -5.3163  -16.9652   11.0852 N   0  0  0  0  0  0  0  0  0  0  0  0
   -5.3951  -18.2138   10.5613 C   0  0  0  0  0  0  0  0  0  0  0  0
   -6.7583  -18.5350   10.4523 C   0  0  0  0  0  0  0  0  0  0  0  0
   -7.1057  -19.7182    9.9611 N   0  0  0  0  0  0  0  0  0  0  0  0
   -6.1872  -20.5828    9.5798 C   0  0  0  0  0  0  0  0  0  0  0  0
   -4.8952  -20.3243    9.6627 N   0  0  0  0  0  0  0  0  0  0  0  0
   -4.4538  -19.1688   10.1461 C   0  0  0  0  0  0  0  0  0  0  0  0
   -3.0916  -18.9064   10.2301 N   0  0  0  0  0  0  0  0  0  0  0  0
   -2.2165  -19.9244   10.3482 C   0  0  0  0  0  0  0  0  0  0  0  0
   -2.6180  -21.0709   10.3835 O   0  0  0  0  0  0  0  0  0  0  0  0
   -0.7688  -19.6459   10.4371 C   0  0  0  0  0  0  0  0  0  0  0  0
   -0.2578  -18.4332    9.9727 C   0  0  0  0  0  0  0  0  0  0  0  0
    1.0975  -18.1789   10.0590 C   0  0  0  0  0  0  0  0  0  0  0  0
    1.5932  -17.0059    9.6090 F   0  0  0  0  0  0  0  0  0  0  0  0
    1.9496  -19.1266   10.6056 C   0  0  0  0  0  0  0  0  0  0  0  0
    1.4509  -20.3294   11.0684 C   0  0  0  0  0  0  0  0  0  0  0  0
    0.0956  -20.5947   10.9934 C   0  0  0  0  0  0  0  0  0  0  0  0
   -0.3903  -21.7701   11.4465 F   0  0  0  0  0  0  0  0  0  0  0  0
   -6.8199  -15.2637   11.8224 N   0  0  0  0  0  0  0  0  0  0  0  0
   -7.7036  -14.5083   10.9249 C   0  0  0  0  0  0  0  0  0  0  0  0
   -8.1271  -13.2038   11.6029 C   0  0  0  0  0  0  0  0  0  0  0  0
   -6.8806  -12.3788   11.9351 C   0  0  0  0  0  0  0  0  0  0  0  0
   -5.9549  -13.2058   12.8312 C   0  0  0  0  0  0  0  0  0  0  0  0
   -5.5948  -14.5107   12.1175 C   0  0  0  0  0  0  0  0  0  0  0  0
  1  2  1  0
  2  3  1  0
  2 12  1  0
  3  4  1  0
  3 13  1  0
  4  5  1  0
  5  6  1  0
  5 12  1  0
  6  7  1  0
  7  8  1  0
  8  9  1  0
  8 10  2  0
  8 11  1  0
 11 12  1  0
 13 14  1  0
 13 17  1  0
 14 15  2  0
 14 33  1  0
 15 16  1  0
 16 17  2  0
 16 21  1  0
 17 18  1  0
 18 19  2  0
 19 20  1  0
 20 21  2  0
 21 22  1  0
 22 23  1  0
 23 24  2  0
 23 25  1  0
 25 26  2  0
 25 31  1  0
 26 27  1  0
 27 28  1  0
 27 29  2  0
 29 30  1  0
 30 31  2  0
 31 32  1  0
 33 34  1  0
 33 38  1  0
 34 35  1  0
 35 36  1  0
 36 37  1  0
 37 38  1  0
M  CHG  1   9  -1
M  END
>  <Gold.Gold.Protein.RotatedWaterAtoms>  (718) 


>  <Gold.Id.Protein>  (718) 


>  <Gold.PLP.Chemscore.CHOScore>  (718) 
0.0000

>  <Gold.PLP.Chemscore.Hbond>  (718) 
1.0000

>  <Gold.PLP.Chemscore.Internal.Correction>  (718) 
0.3377

>  <Gold.PLP.Chemscore.Metal>  (718) 
0.0000

>  <Gold.PLP.Fitness>  (718) 
63.6279

>  <Gold.PLP.PLP>  (718) 
-61.0937

>  <Gold.PLP.ligand.clash>  (718) 
0.0000

>  <Gold.PLP.ligand.torsion>  (718) 
0.4018

>  <Gold.PLP.part.buried>  (718) 
-8.3500

>  <Gold.PLP.part.hbond>  (718) 
-1.5185

>  <Gold.PLP.part.metal>  (718) 
0.0000

>  <Gold.PLP.part.nonpolar>  (718) 
-51.5069

>  <Gold.PLP.part.repulsive>  (718) 
0.2079

>  <Gold.Protein.RotatedAtoms>  (718) 


>  <Gold.Protein.RotatedTorsions>  (718) 


>  <Gold.Protein.RotatedWaterAtoms>  (718) 


>  <Gold.Version>  (718) 
5.3.0

>  <PLP.Chemscore.CHOScore>  (718) 


>  <PLP.Chemscore.Hbond>  (718) 


>  <PLP.Chemscore.Internal.Correction>  (718) 


>  <PLP.Chemscore.Metal>  (718) 


>  <PLP.Fitness>  (718) 


>  <PLP.PLP>  (718) 


>  <PLP.ligand.clash>  (718) 


>  <PLP.ligand.torsion>  (718) 


>  <PLP.part.buried>  (718) 


>  <PLP.part.hbond>  (718) 


>  <PLP.part.metal>  (718) 


>  <PLP.part.nonpolar>  (718) 


>  <PLP.part.repulsive>  (718) 


>  <Version>  (718) 


$$$$
3718|Compound_569|Compounds_3D_F|sdf|170|dock10|1
     RDKit          3D

 31 34  0  0  0  0  0  0  0  0999 V2000
  -10.1965  -22.7135   15.2861 O   0  0  0  0  0  0  0  0  0  0  0  0
  -11.3254  -22.2666   16.0391 C   0  0  0  0  0  0  0  0  0  0  0  0
  -12.0815  -21.2022   15.2424 C   0  0  0  0  0  0  0  0  0  0  0  0
  -11.2969  -20.7879   14.1115 O   0  0  0  0  0  0  0  0  0  0  0  0
  -12.2211  -20.4931   13.0427 C   0  0  0  0  0  0  0  0  0  0  0  0
  -11.5457  -20.5557   11.7439 N   0  0  0  0  0  0  0  0  0  0  0  0
  -11.6470  -21.5622   10.8298 C   0  0  0  0  0  0  0  0  0  0  0  0
  -10.9145  -21.2937    9.7884 N   0  0  0  0  0  0  0  0  0  0  0  0
  -10.2961  -20.0999    9.9681 C   0  0  0  0  0  0  0  0  0  0  0  0
  -10.6990  -19.6099   11.2229 C   0  0  0  0  0  0  0  0  0  0  0  0
  -10.2283  -18.4410   11.6426 N   0  0  0  0  0  0  0  0  0  0  0  0
   -9.3914  -17.7445   10.8907 C   0  0  0  0  0  0  0  0  0  0  0  0
   -8.9863  -18.1700    9.7020 N   0  0  0  0  0  0  0  0  0  0  0  0
   -9.4100  -19.3250    9.2043 C   0  0  0  0  0  0  0  0  0  0  0  0
   -8.9901  -19.7498    7.9893 O   0  0  0  0  0  0  0  0  0  0  0  0
   -8.9213  -16.5256   11.3633 N   0  0  0  0  0  0  0  0  0  0  0  0
   -7.6732  -16.1211   11.0571 C   0  0  0  0  0  0  0  0  0  0  0  0
   -6.9584  -16.8216   10.3667 O   0  0  0  0  0  0  0  0  0  0  0  0
   -7.1739  -14.8253   11.5594 C   0  0  0  0  0  0  0  0  0  0  0  0
   -7.9063  -13.6571   11.3385 C   0  0  0  0  0  0  0  0  0  0  0  0
   -7.4328  -12.4499   11.8121 C   0  0  0  0  0  0  0  0  0  0  0  0
   -8.1411  -11.3181   11.5995 F   0  0  0  0  0  0  0  0  0  0  0  0
   -6.2335  -12.3940   12.5047 C   0  0  0  0  0  0  0  0  0  0  0  0
   -5.5030  -13.5459   12.7271 C   0  0  0  0  0  0  0  0  0  0  0  0
   -5.9662  -14.7633   12.2643 C   0  0  0  0  0  0  0  0  0  0  0  0
   -5.2516  -15.8881   12.4825 F   0  0  0  0  0  0  0  0  0  0  0  0
  -10.7774  -22.1470    8.6067 C   0  0  0  0  0  0  0  0  0  0  0  0
  -13.2838  -21.6142   13.1631 C   0  0  0  0  0  0  0  0  0  0  0  0
  -14.5313  -21.1976   12.6033 O   0  0  0  0  0  0  0  0  0  0  0  0
  -13.3986  -21.7898   14.7006 C   0  0  0  0  0  0  0  0  0  0  0  0
  -14.5207  -21.0624   15.2038 O   0  0  0  0  0  0  0  0  0  0  0  0
  1  2  1  0
  2  3  1  0
  3  4  1  0
  3 30  1  0
  4  5  1  0
  5  6  1  0
  5 28  1  0
  6  7  1  0
  6 10  1  0
  7  8  2  0
  8  9  1  0
  8 27  1  0
  9 10  2  0
  9 14  1  0
 10 11  1  0
 11 12  2  0
 12 13  1  0
 12 16  1  0
 13 14  2  0
 14 15  1  0
 16 17  1  0
 17 18  2  0
 17 19  1  0
 19 20  2  0
 19 25  1  0
 20 21  1  0
 21 22  1  0
 21 23  2  0
 23 24  1  0
 24 25  2  0
 25 26  1  0
 28 29  1  0
 28 30  1  0
 30 31  1  0
M  CHG  2   8   1  15  -1
M  END
>  <Gold.Gold.Protein.RotatedWaterAtoms>  (719) 


>  <Gold.Id.Protein>  (719) 


>  <Gold.PLP.Chemscore.CHOScore>  (719) 
0.0000

>  <Gold.PLP.Chemscore.Hbond>  (719) 
3.1908

>  <Gold.PLP.Chemscore.Internal.Correction>  (719) 
0.4760

>  <Gold.PLP.Chemscore.Metal>  (719) 
0.0000

>  <Gold.PLP.Fitness>  (719) 
73.6702

>  <Gold.PLP.PLP>  (719) 
-67.9612

>  <Gold.PLP.ligand.clash>  (719) 
0.0000

>  <Gold.PLP.ligand.torsion>  (719) 
2.1697

>  <Gold.PLP.part.buried>  (719) 
-13.5438

>  <Gold.PLP.part.hbond>  (719) 
-6.1304

>  <Gold.PLP.part.metal>  (719) 
0.0000

>  <Gold.PLP.part.nonpolar>  (719) 
-50.1112

>  <Gold.PLP.part.repulsive>  (719) 
0.0860

>  <Gold.Protein.RotatedAtoms>  (719) 


>  <Gold.Protein.RotatedTorsions>  (719) 


>  <Gold.Protein.RotatedWaterAtoms>  (719) 


>  <Gold.Version>  (719) 
5.3.0

>  <PLP.Chemscore.CHOScore>  (719) 


>  <PLP.Chemscore.Hbond>  (719) 


>  <PLP.Chemscore.Internal.Correction>  (719) 


>  <PLP.Chemscore.Metal>  (719) 


>  <PLP.Fitness>  (719) 


>  <PLP.PLP>  (719) 


>  <PLP.ligand.clash>  (719) 


>  <PLP.ligand.torsion>  (719) 


>  <PLP.part.buried>  (719) 


>  <PLP.part.hbond>  (719) 


>  <PLP.part.metal>  (719) 


>  <PLP.part.nonpolar>  (719) 


>  <PLP.part.repulsive>  (719) 


>  <Version>  (719) 


$$$$
3719|Compound_585|Compounds_3D_F|sdf|179|dock10|1
     RDKit          3D

 27 29  0  0  0  0  0  0  0  0999 V2000
   -9.6279  -21.5292   10.6502 O   0  0  0  0  0  0  0  0  0  0  0  0
  -10.0227  -20.2398   10.7552 C   0  0  0  0  0  0  0  0  0  0  0  0
  -11.3512  -19.8590   10.4350 C   0  0  0  0  0  0  0  0  0  0  0  0
  -12.2561  -20.7441   10.0219 N   0  0  0  0  0  0  0  0  0  0  0  0
  -13.4750  -20.3418    9.7375 C   0  0  0  0  0  0  0  0  0  0  0  0
  -13.8288  -18.9979    9.8647 C   0  0  0  0  0  0  0  0  0  0  0  0
  -12.9504  -18.1065   10.2704 N   0  0  0  0  0  0  0  0  0  0  0  0
  -11.7063  -18.4931   10.5644 C   0  0  0  0  0  0  0  0  0  0  0  0
  -10.7782  -17.6241   10.9829 N   0  0  0  0  0  0  0  0  0  0  0  0
   -9.5572  -18.0337   11.2669 C   0  0  0  0  0  0  0  0  0  0  0  0
   -9.1819  -19.3053   11.1632 N   0  0  0  0  0  0  0  0  0  0  0  0
   -8.6267  -17.0993   11.6971 N   0  0  0  0  0  0  0  0  0  0  0  0
   -8.6382  -15.8522   11.1845 C   0  0  0  0  0  0  0  0  0  0  0  0
   -9.4633  -15.5480   10.3457 O   0  0  0  0  0  0  0  0  0  0  0  0
   -7.6478  -14.8572   11.6425 C   0  0  0  0  0  0  0  0  0  0  0  0
   -8.0069  -13.5107   11.7591 C   0  0  0  0  0  0  0  0  0  0  0  0
   -9.2622  -13.1156   11.4532 F   0  0  0  0  0  0  0  0  0  0  0  0
   -7.0737  -12.5855   12.1887 C   0  0  0  0  0  0  0  0  0  0  0  0
   -5.7898  -12.9906   12.5027 C   0  0  0  0  0  0  0  0  0  0  0  0
   -5.4288  -14.3223   12.3891 C   0  0  0  0  0  0  0  0  0  0  0  0
   -6.3495  -15.2573   11.9672 C   0  0  0  0  0  0  0  0  0  0  0  0
  -14.5003  -21.3419    9.2701 C   0  0  0  0  0  0  0  0  0  0  0  0
  -14.6791  -22.3452   10.2714 O   0  0  0  0  0  0  0  0  0  0  0  0
  -14.0203  -21.9955    7.9726 C   0  0  0  0  0  0  0  0  0  0  0  0
  -13.8587  -20.9946    6.9661 O   0  0  0  0  0  0  0  0  0  0  0  0
  -15.0531  -23.0246    7.5071 C   0  0  0  0  0  0  0  0  0  0  0  0
  -16.3086  -22.3769    7.2936 O   0  0  0  0  0  0  0  0  0  0  0  0
  1  2  1  0
  2  3  2  0
  2 11  1  0
  3  4  1  0
  3  8  1  0
  4  5  2  0
  5  6  1  0
  5 22  1  0
  6  7  2  0
  7  8  1  0
  8  9  2  0
  9 10  1  0
 10 11  2  0
 10 12  1  0
 12 13  1  0
 13 14  2  0
 13 15  1  0
 15 16  2  0
 15 21  1  0
 16 17  1  0
 16 18  1  0
 18 19  2  0
 19 20  1  0
 20 21  2  0
 22 23  1  0
 22 24  1  0
 24 25  1  0
 24 26  1  0
 26 27  1  0
M  END
>  <Gold.Gold.Protein.RotatedWaterAtoms>  (720) 


>  <Gold.Id.Protein>  (720) 


>  <Gold.PLP.Chemscore.CHOScore>  (720) 
0.0000

>  <Gold.PLP.Chemscore.Hbond>  (720) 
3.3920

>  <Gold.PLP.Chemscore.Internal.Correction>  (720) 
0.4857

>  <Gold.PLP.Chemscore.Metal>  (720) 
0.0000

>  <Gold.PLP.Fitness>  (720) 
69.3003

>  <Gold.PLP.PLP>  (720) 
-60.1563

>  <Gold.PLP.ligand.clash>  (720) 
0.0000

>  <Gold.PLP.ligand.torsion>  (720) 
0.7588

>  <Gold.PLP.part.buried>  (720) 
-6.8119

>  <Gold.PLP.part.hbond>  (720) 
-7.3363

>  <Gold.PLP.part.metal>  (720) 
0.0000

>  <Gold.PLP.part.nonpolar>  (720) 
-47.1503

>  <Gold.PLP.part.repulsive>  (720) 
0.1731

>  <Gold.Protein.RotatedAtoms>  (720) 


>  <Gold.Protein.RotatedTorsions>  (720) 


>  <Gold.Protein.RotatedWaterAtoms>  (720) 


>  <Gold.Version>  (720) 
5.3.0

>  <PLP.Chemscore.CHOScore>  (720) 


>  <PLP.Chemscore.Hbond>  (720) 


>  <PLP.Chemscore.Internal.Correction>  (720) 


>  <PLP.Chemscore.Metal>  (720) 


>  <PLP.Fitness>  (720) 


>  <PLP.PLP>  (720) 


>  <PLP.ligand.clash>  (720) 


>  <PLP.ligand.torsion>  (720) 


>  <PLP.part.buried>  (720) 


>  <PLP.part.hbond>  (720) 


>  <PLP.part.metal>  (720) 


>  <PLP.part.nonpolar>  (720) 


>  <PLP.part.repulsive>  (720) 


>  <Version>  (720) 


$$$$
3720|Compound_589|Compounds_3D_F|sdf|182|dock10|1
     RDKit          3D

 19 20  0  0  0  0  0  0  0  0999 V2000
   -8.8841  -16.7325   10.9047 N   0  0  0  0  0  0  0  0  0  0  0  0
   -7.6942  -16.3671   11.4222 C   0  0  0  0  0  0  0  0  0  0  0  0
   -6.8290  -17.2009   11.6033 O   0  0  0  0  0  0  0  0  0  0  0  0
   -7.4430  -14.9543   11.7684 C   0  0  0  0  0  0  0  0  0  0  0  0
   -6.1647  -14.5432   12.1602 C   0  0  0  0  0  0  0  0  0  0  0  0
   -5.1547  -15.4384   12.2221 F   0  0  0  0  0  0  0  0  0  0  0  0
   -5.9387  -13.2174   12.4827 C   0  0  0  0  0  0  0  0  0  0  0  0
   -6.9715  -12.3011   12.4194 C   0  0  0  0  0  0  0  0  0  0  0  0
   -8.2390  -12.7025   12.0319 C   0  0  0  0  0  0  0  0  0  0  0  0
   -8.4795  -14.0197   11.7014 C   0  0  0  0  0  0  0  0  0  0  0  0
   -9.1235  -18.0666   10.5825 C   0  0  0  0  0  0  0  0  0  0  0  0
   -8.2579  -19.0382   10.6628 N   0  0  0  0  0  0  0  0  0  0  0  0
   -8.9016  -20.2301   10.2459 O   0  0  0  0  0  0  0  0  0  0  0  0
  -10.2356  -19.8981    9.9040 N   0  0  0  0  0  0  0  0  0  0  0  0
  -10.3933  -18.6191   10.1025 C   0  0  0  0  0  0  0  0  0  0  0  0
  -11.5678  -17.8981    9.8848 N   0  0  0  0  0  0  0  0  0  0  0  0
  -12.6690  -18.5258    9.4280 C   0  0  0  0  0  0  0  0  0  0  0  0
  -12.6395  -19.7180    9.2058 O   0  0  0  0  0  0  0  0  0  0  0  0
  -13.9375  -17.7466    9.1924 C   0  0  0  0  0  0  0  0  0  0  0  0
  1  2  1  0
  1 11  1  0
  2  3  2  0
  2  4  1  0
  4  5  2  0
  4 10  1  0
  5  6  1  0
  5  7  1  0
  7  8  2  0
  8  9  1  0
  9 10  2  0
 11 12  2  0
 11 15  1  0
 12 13  1  0
 13 14  1  0
 14 15  2  0
 15 16  1  0
 16 17  1  0
 17 18  2  0
 17 19  1  0
M  END
>  <Gold.Gold.Protein.RotatedWaterAtoms>  (721) 


>  <Gold.Id.Protein>  (721) 


>  <Gold.PLP.Chemscore.CHOScore>  (721) 
0.0000

>  <Gold.PLP.Chemscore.Hbond>  (721) 
1.0244

>  <Gold.PLP.Chemscore.Internal.Correction>  (721) 
0.0016

>  <Gold.PLP.Chemscore.Metal>  (721) 
0.0000

>  <Gold.PLP.Fitness>  (721) 
50.7014

>  <Gold.PLP.PLP>  (721) 
-47.6818

>  <Gold.PLP.ligand.clash>  (721) 
0.0000

>  <Gold.PLP.ligand.torsion>  (721) 
0.0276

>  <Gold.PLP.part.buried>  (721) 
-10.1523

>  <Gold.PLP.part.hbond>  (721) 
-1.1112

>  <Gold.PLP.part.metal>  (721) 
0.0000

>  <Gold.PLP.part.nonpolar>  (721) 
-36.9260

>  <Gold.PLP.part.repulsive>  (721) 
0.1272

>  <Gold.Protein.RotatedAtoms>  (721) 


>  <Gold.Protein.RotatedTorsions>  (721) 


>  <Gold.Protein.RotatedWaterAtoms>  (721) 


>  <Gold.Version>  (721) 
5.3.0

>  <PLP.Chemscore.CHOScore>  (721) 


>  <PLP.Chemscore.Hbond>  (721) 


>  <PLP.Chemscore.Internal.Correction>  (721) 


>  <PLP.Chemscore.Metal>  (721) 


>  <PLP.Fitness>  (721) 


>  <PLP.PLP>  (721) 


>  <PLP.ligand.clash>  (721) 


>  <PLP.ligand.torsion>  (721) 


>  <PLP.part.buried>  (721) 


>  <PLP.part.hbond>  (721) 


>  <PLP.part.metal>  (721) 


>  <PLP.part.nonpolar>  (721) 


>  <PLP.part.repulsive>  (721) 


>  <Version>  (721) 


$$$$
3721|Compound_593|Compounds_3D_F|sdf|185|dock10|1
     RDKit          3D

 18 19  0  0  0  0  0  0  0  0999 V2000
  -11.8864  -19.7466   11.3514 O   0  0  0  0  0  0  0  0  0  0  0  0
  -11.5404  -18.5379   11.8360 C   0  0  0  0  0  0  0  0  0  0  0  0
  -12.3344  -17.8987   12.4976 O   0  0  0  0  0  0  0  0  0  0  0  0
  -10.1973  -17.9901   11.5623 C   0  0  0  0  0  0  0  0  0  0  0  0
   -9.7944  -16.7612   11.8166 N   0  0  0  0  0  0  0  0  0  0  0  0
   -8.5276  -16.6159   11.4405 C   0  0  0  0  0  0  0  0  0  0  0  0
   -8.0948  -17.7519   10.9361 N   0  0  0  0  0  0  0  0  0  0  0  0
   -9.1610  -18.6629   11.0090 N   0  0  0  0  0  0  0  0  0  0  0  0
   -7.7754  -15.4430   11.5610 N   0  0  0  0  0  0  0  0  0  0  0  0
   -8.3825  -14.2829   11.8796 C   0  0  0  0  0  0  0  0  0  0  0  0
   -9.5844  -14.2561   12.0620 O   0  0  0  0  0  0  0  0  0  0  0  0
   -7.5893  -13.0447   12.0067 C   0  0  0  0  0  0  0  0  0  0  0  0
   -6.2437  -13.1071   12.3818 C   0  0  0  0  0  0  0  0  0  0  0  0
   -5.6639  -14.3014   12.6293 F   0  0  0  0  0  0  0  0  0  0  0  0
   -5.5086  -11.9408   12.4981 C   0  0  0  0  0  0  0  0  0  0  0  0
   -6.1010  -10.7189   12.2438 C   0  0  0  0  0  0  0  0  0  0  0  0
   -7.4339  -10.6515   11.8717 C   0  0  0  0  0  0  0  0  0  0  0  0
   -8.1778  -11.8041   11.7467 C   0  0  0  0  0  0  0  0  0  0  0  0
  1  2  1  0
  2  3  2  0
  2  4  1  0
  4  5  2  0
  4  8  1  0
  5  6  1  0
  6  7  2  0
  6  9  1  0
  7  8  1  0
  9 10  1  0
 10 11  2  0
 10 12  1  0
 12 13  2  0
 12 18  1  0
 13 14  1  0
 13 15  1  0
 15 16  2  0
 16 17  1  0
 17 18  2  0
M  END
>  <Gold.Gold.Protein.RotatedWaterAtoms>  (722) 


>  <Gold.Id.Protein>  (722) 


>  <Gold.PLP.Chemscore.CHOScore>  (722) 
0.0000

>  <Gold.PLP.Chemscore.Hbond>  (722) 
1.9120

>  <Gold.PLP.Chemscore.Internal.Correction>  (722) 
0.0009

>  <Gold.PLP.Chemscore.Metal>  (722) 
0.0000

>  <Gold.PLP.Fitness>  (722) 
57.8698

>  <Gold.PLP.PLP>  (722) 
-52.9479

>  <Gold.PLP.ligand.clash>  (722) 
0.0000

>  <Gold.PLP.ligand.torsion>  (722) 
0.4075

>  <Gold.PLP.part.buried>  (722) 
-10.8393

>  <Gold.PLP.part.hbond>  (722) 
-3.6265

>  <Gold.PLP.part.metal>  (722) 
0.0000

>  <Gold.PLP.part.nonpolar>  (722) 
-39.7512

>  <Gold.PLP.part.repulsive>  (722) 
0.3021

>  <Gold.Protein.RotatedAtoms>  (722) 


>  <Gold.Protein.RotatedTorsions>  (722) 


>  <Gold.Protein.RotatedWaterAtoms>  (722) 


>  <Gold.Version>  (722) 
5.3.0

>  <PLP.Chemscore.CHOScore>  (722) 


>  <PLP.Chemscore.Hbond>  (722) 


>  <PLP.Chemscore.Internal.Correction>  (722) 


>  <PLP.Chemscore.Metal>  (722) 


>  <PLP.Fitness>  (722) 


>  <PLP.PLP>  (722) 


>  <PLP.ligand.clash>  (722) 


>  <PLP.ligand.torsion>  (722) 


>  <PLP.part.buried>  (722) 


>  <PLP.part.hbond>  (722) 


>  <PLP.part.metal>  (722) 


>  <PLP.part.nonpolar>  (722) 


>  <PLP.part.repulsive>  (722) 


>  <Version>  (722) 


$$$$
3722|Compound_599|Compounds_3D_F|sdf|187|dock10|1
     RDKit          3D

 19 21  0  0  0  0  0  0  0  0999 V2000
   -8.4907  -16.5666   11.2152 N   0  0  0  0  0  0  0  0  0  0  0  0
   -8.7904  -15.4071   11.8340 C   0  0  0  0  0  0  0  0  0  0  0  0
   -9.9289  -15.1900   12.1988 O   0  0  0  0  0  0  0  0  0  0  0  0
   -7.7349  -14.4020   12.0682 C   0  0  0  0  0  0  0  0  0  0  0  0
   -8.0013  -13.0435   11.8680 C   0  0  0  0  0  0  0  0  0  0  0  0
   -9.2267  -12.6464   11.4604 F   0  0  0  0  0  0  0  0  0  0  0  0
   -7.0075  -12.1084   12.0906 C   0  0  0  0  0  0  0  0  0  0  0  0
   -5.7541  -12.5149   12.5078 C   0  0  0  0  0  0  0  0  0  0  0  0
   -5.4837  -13.8579   12.7080 C   0  0  0  0  0  0  0  0  0  0  0  0
   -6.4664  -14.8021   12.4959 C   0  0  0  0  0  0  0  0  0  0  0  0
   -9.4841  -17.5095   10.9905 C   0  0  0  0  0  0  0  0  0  0  0  0
  -10.5213  -17.6154   11.8139 N   0  0  0  0  0  0  0  0  0  0  0  0
  -11.4712  -18.5094   11.6072 C   0  0  0  0  0  0  0  0  0  0  0  0
  -11.4530  -19.3397   10.5886 N   0  0  0  0  0  0  0  0  0  0  0  0
  -10.4511  -19.3077    9.7077 C   0  0  0  0  0  0  0  0  0  0  0  0
   -9.4197  -18.3664    9.8869 C   0  0  0  0  0  0  0  0  0  0  0  0
   -8.5544  -18.5727    8.8465 N   0  0  0  0  0  0  0  0  0  0  0  0
   -9.0188  -19.5332    8.1234 N   0  0  0  0  0  0  0  0  0  0  0  0
  -10.1293  -19.9862    8.5926 N   0  0  0  0  0  0  0  0  0  0  0  0
  1  2  1  0
  1 11  1  0
  2  3  2  0
  2  4  1  0
  4  5  2  0
  4 10  1  0
  5  6  1  0
  5  7  1  0
  7  8  2  0
  8  9  1  0
  9 10  2  0
 11 12  2  0
 11 16  1  0
 12 13  1  0
 13 14  2  0
 14 15  1  0
 15 16  2  0
 15 19  1  0
 16 17  1  0
 17 18  1  0
 18 19  2  0
M  END
>  <Gold.Gold.Protein.RotatedWaterAtoms>  (723) 


>  <Gold.Id.Protein>  (723) 


>  <Gold.PLP.Chemscore.CHOScore>  (723) 
0.0000

>  <Gold.PLP.Chemscore.Hbond>  (723) 
1.4142

>  <Gold.PLP.Chemscore.Internal.Correction>  (723) 
0.2950

>  <Gold.PLP.Chemscore.Metal>  (723) 
0.0000

>  <Gold.PLP.Fitness>  (723) 
49.6151

>  <Gold.PLP.PLP>  (723) 
-46.7776

>  <Gold.PLP.ligand.clash>  (723) 
0.0000

>  <Gold.PLP.ligand.torsion>  (723) 
0.8500

>  <Gold.PLP.part.buried>  (723) 
-7.5280

>  <Gold.PLP.part.hbond>  (723) 
-3.1656

>  <Gold.PLP.part.metal>  (723) 
0.0000

>  <Gold.PLP.part.nonpolar>  (723) 
-33.8900

>  <Gold.PLP.part.repulsive>  (723) 
0.2500

>  <Gold.Protein.RotatedAtoms>  (723) 


>  <Gold.Protein.RotatedTorsions>  (723) 


>  <Gold.Protein.RotatedWaterAtoms>  (723) 


>  <Gold.Version>  (723) 
5.3.0

>  <PLP.Chemscore.CHOScore>  (723) 


>  <PLP.Chemscore.Hbond>  (723) 


>  <PLP.Chemscore.Internal.Correction>  (723) 


>  <PLP.Chemscore.Metal>  (723) 


>  <PLP.Fitness>  (723) 


>  <PLP.PLP>  (723) 


>  <PLP.ligand.clash>  (723) 


>  <PLP.ligand.torsion>  (723) 


>  <PLP.part.buried>  (723) 


>  <PLP.part.hbond>  (723) 


>  <PLP.part.metal>  (723) 


>  <PLP.part.nonpolar>  (723) 


>  <PLP.part.repulsive>  (723) 


>  <Version>  (723) 


$$$$
3723|Compound_626|Compounds_3D_F|sdf|192|dock10|1
     RDKit          3D

 21 22  0  0  0  0  0  0  0  0999 V2000
   -8.5335  -14.7038   10.0068 O   0  0  0  0  0  0  0  0  0  0  0  0
   -8.8454  -16.0077    9.8113 C   0  0  0  0  0  0  0  0  0  0  0  0
   -8.3462  -16.6366    8.7579 N   0  0  0  0  0  0  0  0  0  0  0  0
   -8.6261  -17.9119    8.5303 C   0  0  0  0  0  0  0  0  0  0  0  0
   -8.1091  -18.5462    7.4493 O   0  0  0  0  0  0  0  0  0  0  0  0
   -9.4628  -18.5938    9.4204 C   0  0  0  0  0  0  0  0  0  0  0  0
   -9.7714  -19.8940    9.2233 F   0  0  0  0  0  0  0  0  0  0  0  0
   -9.9683  -17.8971   10.5165 C   0  0  0  0  0  0  0  0  0  0  0  0
   -9.6338  -16.6157   10.6770 N   0  0  0  0  0  0  0  0  0  0  0  0
  -10.8593  -18.5705   11.4904 C   0  0  0  0  0  0  0  0  0  0  0  0
  -11.2059  -17.9900   12.4993 O   0  0  0  0  0  0  0  0  0  0  0  0
  -11.2844  -19.8281   11.2565 N   0  0  0  0  0  0  0  0  0  0  0  0
  -12.1227  -20.4613   12.1727 C   0  0  0  0  0  0  0  0  0  0  0  0
  -12.1911  -20.2042   13.4487 N   0  0  0  0  0  0  0  0  0  0  0  0
  -13.1637  -21.0668   14.0140 O   0  0  0  0  0  0  0  0  0  0  0  0
  -13.6812  -21.8714   12.9691 N   0  0  0  0  0  0  0  0  0  0  0  0
  -13.0822  -21.5263   11.8643 C   0  0  0  0  0  0  0  0  0  0  0  0
  -13.3089  -22.0815   10.6053 N   0  0  0  0  0  0  0  0  0  0  0  0
  -13.8900  -23.2926   10.4974 C   0  0  0  0  0  0  0  0  0  0  0  0
  -14.2167  -23.8997   11.4950 O   0  0  0  0  0  0  0  0  0  0  0  0
  -14.1356  -23.8924    9.1364 C   0  0  0  0  0  0  0  0  0  0  0  0
  1  2  1  0
  2  3  2  0
  2  9  1  0
  3  4  1  0
  4  5  1  0
  4  6  2  0
  6  7  1  0
  6  8  1  0
  8  9  2  0
  8 10  1  0
 10 11  2  0
 10 12  1  0
 12 13  1  0
 13 14  2  0
 13 17  1  0
 14 15  1  0
 15 16  1  0
 16 17  2  0
 17 18  1  0
 18 19  1  0
 19 20  2  0
 19 21  1  0
M  END
>  <Gold.Gold.Protein.RotatedWaterAtoms>  (724) 


>  <Gold.Id.Protein>  (724) 


>  <Gold.PLP.Chemscore.CHOScore>  (724) 
0.0000

>  <Gold.PLP.Chemscore.Hbond>  (724) 
5.0184

>  <Gold.PLP.Chemscore.Internal.Correction>  (724) 
0.0001

>  <Gold.PLP.Chemscore.Metal>  (724) 
0.0000

>  <Gold.PLP.Fitness>  (724) 
36.7131

>  <Gold.PLP.PLP>  (724) 
-22.1620

>  <Gold.PLP.ligand.clash>  (724) 
0.0000

>  <Gold.PLP.ligand.torsion>  (724) 
0.2521

>  <Gold.PLP.part.buried>  (724) 
-3.8986

>  <Gold.PLP.part.hbond>  (724) 
-7.2547

>  <Gold.PLP.part.metal>  (724) 
0.0000

>  <Gold.PLP.part.nonpolar>  (724) 
-11.8078

>  <Gold.PLP.part.repulsive>  (724) 
0.4299

>  <Gold.Protein.RotatedAtoms>  (724) 


>  <Gold.Protein.RotatedTorsions>  (724) 


>  <Gold.Protein.RotatedWaterAtoms>  (724) 


>  <Gold.Version>  (724) 
5.3.0

>  <PLP.Chemscore.CHOScore>  (724) 


>  <PLP.Chemscore.Hbond>  (724) 


>  <PLP.Chemscore.Internal.Correction>  (724) 


>  <PLP.Chemscore.Metal>  (724) 


>  <PLP.Fitness>  (724) 


>  <PLP.PLP>  (724) 


>  <PLP.ligand.clash>  (724) 


>  <PLP.ligand.torsion>  (724) 


>  <PLP.part.buried>  (724) 


>  <PLP.part.hbond>  (724) 


>  <PLP.part.metal>  (724) 


>  <PLP.part.nonpolar>  (724) 


>  <PLP.part.repulsive>  (724) 


>  <Version>  (724) 


$$$$
3724|Compound_629|Compounds_3D_F|sdf|194|dock10|1
     RDKit          3D

 22 24  0  0  0  0  0  0  0  0999 V2000
   -8.5002  -13.6663   12.0580 O   0  0  0  0  0  0  0  0  0  0  0  0
   -8.3577  -14.9700   11.7176 C   0  0  0  0  0  0  0  0  0  0  0  0
   -7.2230  -15.3687   11.1628 N   0  0  0  0  0  0  0  0  0  0  0  0
   -7.0428  -16.6349   10.8154 C   0  0  0  0  0  0  0  0  0  0  0  0
   -5.8765  -17.0330   10.2496 O   0  0  0  0  0  0  0  0  0  0  0  0
   -8.0719  -17.5548   11.0420 C   0  0  0  0  0  0  0  0  0  0  0  0
   -7.9268  -18.8549   10.7017 F   0  0  0  0  0  0  0  0  0  0  0  0
   -9.2510  -17.0955   11.6266 C   0  0  0  0  0  0  0  0  0  0  0  0
   -9.3508  -15.8065   11.9515 N   0  0  0  0  0  0  0  0  0  0  0  0
  -10.3733  -18.0276   11.8882 C   0  0  0  0  0  0  0  0  0  0  0  0
  -11.4337  -17.6020   12.3011 O   0  0  0  0  0  0  0  0  0  0  0  0
  -10.2172  -19.3479   11.6690 N   0  0  0  0  0  0  0  0  0  0  0  0
  -11.2679  -20.2212   11.9142 C   0  0  0  0  0  0  0  0  0  0  0  0
  -12.0654  -19.9908   12.9502 N   0  0  0  0  0  0  0  0  0  0  0  0
  -13.0820  -20.7933   13.2268 C   0  0  0  0  0  0  0  0  0  0  0  0
  -13.8870  -20.5477   14.2869 O   0  0  0  0  0  0  0  0  0  0  0  0
  -13.3076  -21.9074   12.3965 C   0  0  0  0  0  0  0  0  0  0  0  0
  -14.2177  -22.8977   12.3857 N   0  0  0  0  0  0  0  0  0  0  0  0
  -13.9941  -23.6930   11.3984 N   0  0  0  0  0  0  0  0  0  0  0  0
  -12.8757  -23.2425   10.6804 N   0  0  0  0  0  0  0  0  0  0  0  0
  -12.4371  -22.1109   11.3100 C   0  0  0  0  0  0  0  0  0  0  0  0
  -11.4445  -21.2514   11.1042 N   0  0  0  0  0  0  0  0  0  0  0  0
  1  2  1  0
  2  3  2  0
  2  9  1  0
  3  4  1  0
  4  5  1  0
  4  6  2  0
  6  7  1  0
  6  8  1  0
  8  9  2  0
  8 10  1  0
 10 11  2  0
 10 12  1  0
 12 13  1  0
 13 14  2  0
 13 22  1  0
 14 15  1  0
 15 16  1  0
 15 17  2  0
 17 18  1  0
 17 21  1  0
 18 19  2  0
 19 20  1  0
 20 21  1  0
 21 22  2  0
M  END
>  <Gold.Gold.Protein.RotatedWaterAtoms>  (725) 


>  <Gold.Id.Protein>  (725) 


>  <Gold.PLP.Chemscore.CHOScore>  (725) 
0.0000

>  <Gold.PLP.Chemscore.Hbond>  (725) 
5.0000

>  <Gold.PLP.Chemscore.Internal.Correction>  (725) 
0.4047

>  <Gold.PLP.Chemscore.Metal>  (725) 
0.0000

>  <Gold.PLP.Fitness>  (725) 
46.1963

>  <Gold.PLP.PLP>  (725) 
-31.3630

>  <Gold.PLP.ligand.clash>  (725) 
0.0000

>  <Gold.PLP.ligand.torsion>  (725) 
0.2857

>  <Gold.PLP.part.buried>  (725) 
-7.5123

>  <Gold.PLP.part.hbond>  (725) 
-7.4152

>  <Gold.PLP.part.metal>  (725) 
0.0000

>  <Gold.PLP.part.nonpolar>  (725) 
-17.2671

>  <Gold.PLP.part.repulsive>  (725) 
0.3910

>  <Gold.Protein.RotatedAtoms>  (725) 


>  <Gold.Protein.RotatedTorsions>  (725) 


>  <Gold.Protein.RotatedWaterAtoms>  (725) 


>  <Gold.Version>  (725) 
5.3.0

>  <PLP.Chemscore.CHOScore>  (725) 


>  <PLP.Chemscore.Hbond>  (725) 


>  <PLP.Chemscore.Internal.Correction>  (725) 


>  <PLP.Chemscore.Metal>  (725) 


>  <PLP.Fitness>  (725) 


>  <PLP.PLP>  (725) 


>  <PLP.ligand.clash>  (725) 


>  <PLP.ligand.torsion>  (725) 


>  <PLP.part.buried>  (725) 


>  <PLP.part.hbond>  (725) 


>  <PLP.part.metal>  (725) 


>  <PLP.part.nonpolar>  (725) 


>  <PLP.part.repulsive>  (725) 


>  <Version>  (725) 


$$$$
3725|Compound_632|Compounds_3D_F|sdf|195|dock10|1
     RDKit          3D

 21 23  0  0  0  0  0  0  0  0999 V2000
  -10.3089  -15.5035   12.7995 O   0  0  0  0  0  0  0  0  0  0  0  0
   -9.7701  -16.5430   12.1179 C   0  0  0  0  0  0  0  0  0  0  0  0
   -8.4584  -16.5829   11.9387 N   0  0  0  0  0  0  0  0  0  0  0  0
   -7.8913  -17.5822   11.2782 C   0  0  0  0  0  0  0  0  0  0  0  0
   -6.5475  -17.6134   11.1012 O   0  0  0  0  0  0  0  0  0  0  0  0
   -8.6986  -18.6035   10.7657 C   0  0  0  0  0  0  0  0  0  0  0  0
   -8.1586  -19.6391   10.0872 F   0  0  0  0  0  0  0  0  0  0  0  0
  -10.0743  -18.5252   10.9748 C   0  0  0  0  0  0  0  0  0  0  0  0
  -10.5658  -17.4884   11.6553 N   0  0  0  0  0  0  0  0  0  0  0  0
  -10.9758  -19.5794   10.4536 C   0  0  0  0  0  0  0  0  0  0  0  0
  -10.5198  -20.6468   10.0959 O   0  0  0  0  0  0  0  0  0  0  0  0
  -12.3024  -19.3531   10.3759 N   0  0  0  0  0  0  0  0  0  0  0  0
  -13.1469  -20.3407    9.8882 C   0  0  0  0  0  0  0  0  0  0  0  0
  -13.5889  -20.3007    8.6354 N   0  0  0  0  0  0  0  0  0  0  0  0
  -14.3933  -21.2362    8.1627 C   0  0  0  0  0  0  0  0  0  0  0  0
  -14.8033  -22.2508    8.8899 N   0  0  0  0  0  0  0  0  0  0  0  0
  -14.4125  -22.3751   10.1605 C   0  0  0  0  0  0  0  0  0  0  0  0
  -13.5501  -21.4034   10.7020 C   0  0  0  0  0  0  0  0  0  0  0  0
  -13.3304  -21.7929   11.9967 N   0  0  0  0  0  0  0  0  0  0  0  0
  -13.9906  -22.8816   12.2038 N   0  0  0  0  0  0  0  0  0  0  0  0
  -14.6319  -23.2548   11.1527 N   0  0  0  0  0  0  0  0  0  0  0  0
  1  2  1  0
  2  3  2  0
  2  9  1  0
  3  4  1  0
  4  5  1  0
  4  6  2  0
  6  7  1  0
  6  8  1  0
  8  9  2  0
  8 10  1  0
 10 11  2  0
 10 12  1  0
 12 13  1  0
 13 14  2  0
 13 18  1  0
 14 15  1  0
 15 16  2  0
 16 17  1  0
 17 18  2  0
 17 21  1  0
 18 19  1  0
 19 20  1  0
 20 21  2  0
M  END
>  <Gold.Gold.Protein.RotatedWaterAtoms>  (726) 


>  <Gold.Id.Protein>  (726) 


>  <Gold.PLP.Chemscore.CHOScore>  (726) 
0.9688

>  <Gold.PLP.Chemscore.Hbond>  (726) 
3.4684

>  <Gold.PLP.Chemscore.Internal.Correction>  (726) 
0.2991

>  <Gold.PLP.Chemscore.Metal>  (726) 
0.0000

>  <Gold.PLP.Fitness>  (726) 
39.5961

>  <Gold.PLP.PLP>  (726) 
-27.6605

>  <Gold.PLP.ligand.clash>  (726) 
0.0000

>  <Gold.PLP.ligand.torsion>  (726) 
0.8375

>  <Gold.PLP.part.buried>  (726) 
-4.6190

>  <Gold.PLP.part.hbond>  (726) 
-5.8461

>  <Gold.PLP.part.metal>  (726) 
0.0000

>  <Gold.PLP.part.nonpolar>  (726) 
-18.0152

>  <Gold.PLP.part.repulsive>  (726) 
0.4396

>  <Gold.Protein.RotatedAtoms>  (726) 


>  <Gold.Protein.RotatedTorsions>  (726) 


>  <Gold.Protein.RotatedWaterAtoms>  (726) 


>  <Gold.Version>  (726) 
5.3.0

>  <PLP.Chemscore.CHOScore>  (726) 


>  <PLP.Chemscore.Hbond>  (726) 


>  <PLP.Chemscore.Internal.Correction>  (726) 


>  <PLP.Chemscore.Metal>  (726) 


>  <PLP.Fitness>  (726) 


>  <PLP.PLP>  (726) 


>  <PLP.ligand.clash>  (726) 


>  <PLP.ligand.torsion>  (726) 


>  <PLP.part.buried>  (726) 


>  <PLP.part.hbond>  (726) 


>  <PLP.part.metal>  (726) 


>  <PLP.part.nonpolar>  (726) 


>  <PLP.part.repulsive>  (726) 


>  <Version>  (726) 


$$$$
3726|Compound_639|Compounds_3D_F|sdf|197|dock10|1
     RDKit          3D

 29 31  0  0  0  0  0  0  0  0999 V2000
  -13.6560  -24.0722   11.7598 O   0  0  0  0  0  0  0  0  0  0  0  0
  -13.7267  -23.0088   10.9232 C   0  0  0  0  0  0  0  0  0  0  0  0
  -12.8375  -22.0407   11.0420 N   0  0  0  0  0  0  0  0  0  0  0  0
  -12.8721  -20.9770   10.2373 C   0  0  0  0  0  0  0  0  0  0  0  0
  -11.8699  -19.8946   10.3767 C   0  0  0  0  0  0  0  0  0  0  0  0
  -11.1978  -19.5624    9.4209 O   0  0  0  0  0  0  0  0  0  0  0  0
  -11.7023  -19.2805   11.5645 N   0  0  0  0  0  0  0  0  0  0  0  0
  -10.7637  -18.2675   11.6955 C   0  0  0  0  0  0  0  0  0  0  0  0
  -11.1065  -17.1637   12.3522 N   0  0  0  0  0  0  0  0  0  0  0  0
  -10.2556  -16.1634   12.5104 C   0  0  0  0  0  0  0  0  0  0  0  0
  -10.6170  -15.0462   13.1810 O   0  0  0  0  0  0  0  0  0  0  0  0
   -8.9552  -16.2915   11.9596 C   0  0  0  0  0  0  0  0  0  0  0  0
   -8.0438  -15.3289   12.0773 N   0  0  0  0  0  0  0  0  0  0  0  0
   -6.8505  -15.4963   11.5492 C   0  0  0  0  0  0  0  0  0  0  0  0
   -6.5319  -16.6702   10.8678 C   0  0  0  0  0  0  0  0  0  0  0  0
   -7.4176  -17.6356   10.7394 N   0  0  0  0  0  0  0  0  0  0  0  0
   -8.6350  -17.4868   11.2677 C   0  0  0  0  0  0  0  0  0  0  0  0
   -9.5680  -18.4426   11.1683 N   0  0  0  0  0  0  0  0  0  0  0  0
   -5.8177  -14.4064   11.6808 C   0  0  0  0  0  0  0  0  0  0  0  0
   -4.7166  -14.8860   12.4554 O   0  0  0  0  0  0  0  0  0  0  0  0
   -6.4407  -13.1943   12.3768 C   0  0  0  0  0  0  0  0  0  0  0  0
   -7.6639  -12.8474   11.7240 O   0  0  0  0  0  0  0  0  0  0  0  0
   -5.4717  -12.0124   12.3068 C   0  0  0  0  0  0  0  0  0  0  0  0
   -4.3150  -12.2966   13.0955 O   0  0  0  0  0  0  0  0  0  0  0  0
  -13.8672  -20.8993    9.2644 C   0  0  0  0  0  0  0  0  0  0  0  0
  -13.9380  -19.8398    8.4294 F   0  0  0  0  0  0  0  0  0  0  0  0
  -14.7900  -21.9478    9.1741 C   0  0  0  0  0  0  0  0  0  0  0  0
  -15.7757  -21.9181    8.2445 O   0  0  0  0  0  0  0  0  0  0  0  0
  -14.6825  -22.9721   10.0078 N   0  0  0  0  0  0  0  0  0  0  0  0
  1  2  1  0
  2  3  2  0
  2 29  1  0
  3  4  1  0
  4  5  1  0
  4 25  2  0
  5  6  2  0
  5  7  1  0
  7  8  1  0
  8  9  2  0
  8 18  1  0
  9 10  1  0
 10 11  1  0
 10 12  2  0
 12 13  1  0
 12 17  1  0
 13 14  2  0
 14 15  1  0
 14 19  1  0
 15 16  2  0
 16 17  1  0
 17 18  2  0
 19 20  1  0
 19 21  1  0
 21 22  1  0
 21 23  1  0
 23 24  1  0
 25 26  1  0
 25 27  1  0
 27 28  1  0
 27 29  2  0
M  END
>  <Gold.Gold.Protein.RotatedWaterAtoms>  (727) 


>  <Gold.Id.Protein>  (727) 


>  <Gold.PLP.Chemscore.CHOScore>  (727) 
0.0000

>  <Gold.PLP.Chemscore.Hbond>  (727) 
6.5986

>  <Gold.PLP.Chemscore.Internal.Correction>  (727) 
0.4825

>  <Gold.PLP.Chemscore.Metal>  (727) 
0.0000

>  <Gold.PLP.Fitness>  (727) 
66.1492

>  <Gold.PLP.PLP>  (727) 
-48.9261

>  <Gold.PLP.ligand.clash>  (727) 
0.0000

>  <Gold.PLP.ligand.torsion>  (727) 
1.5276

>  <Gold.PLP.part.buried>  (727) 
-2.4549

>  <Gold.PLP.part.hbond>  (727) 
-11.8712

>  <Gold.PLP.part.metal>  (727) 
0.0000

>  <Gold.PLP.part.nonpolar>  (727) 
-35.2408

>  <Gold.PLP.part.repulsive>  (727) 
0.2100

>  <Gold.Protein.RotatedAtoms>  (727) 


>  <Gold.Protein.RotatedTorsions>  (727) 


>  <Gold.Protein.RotatedWaterAtoms>  (727) 


>  <Gold.Version>  (727) 
5.3.0

>  <PLP.Chemscore.CHOScore>  (727) 


>  <PLP.Chemscore.Hbond>  (727) 


>  <PLP.Chemscore.Internal.Correction>  (727) 


>  <PLP.Chemscore.Metal>  (727) 


>  <PLP.Fitness>  (727) 


>  <PLP.PLP>  (727) 


>  <PLP.ligand.clash>  (727) 


>  <PLP.ligand.torsion>  (727) 


>  <PLP.part.buried>  (727) 


>  <PLP.part.hbond>  (727) 


>  <PLP.part.metal>  (727) 


>  <PLP.part.nonpolar>  (727) 


>  <PLP.part.repulsive>  (727) 


>  <Version>  (727) 


$$$$
3727|Compound_646|Compounds_3D_F|sdf|199|dock10|1
     RDKit          3D

 22 23  0  0  0  0  0  0  0  0999 V2000
   -5.5638  -19.1800    9.6290 O   0  0  0  0  0  0  0  0  0  0  0  0
   -6.1085  -18.1206   10.2745 C   0  0  0  0  0  0  0  0  0  0  0  0
   -5.3410  -17.0805   10.5633 N   0  0  0  0  0  0  0  0  0  0  0  0
   -5.8336  -16.0236   11.1934 C   0  0  0  0  0  0  0  0  0  0  0  0
   -5.0404  -14.9637   11.4829 O   0  0  0  0  0  0  0  0  0  0  0  0
   -7.1859  -16.0180   11.5540 C   0  0  0  0  0  0  0  0  0  0  0  0
   -7.7267  -14.9595   12.1977 F   0  0  0  0  0  0  0  0  0  0  0  0
   -7.9598  -17.1321   11.2335 C   0  0  0  0  0  0  0  0  0  0  0  0
   -7.3882  -18.1525   10.5938 N   0  0  0  0  0  0  0  0  0  0  0  0
   -9.3969  -17.1781   11.5930 C   0  0  0  0  0  0  0  0  0  0  0  0
   -9.9008  -16.2545   12.2014 O   0  0  0  0  0  0  0  0  0  0  0  0
  -10.1446  -18.2437   11.2437 N   0  0  0  0  0  0  0  0  0  0  0  0
  -11.4794  -18.2867   11.5777 C   0  0  0  0  0  0  0  0  0  0  0  0
  -12.4846  -19.0217   10.9428 C   0  0  0  0  0  0  0  0  0  0  0  0
  -13.6510  -18.6933   11.6954 C   0  0  0  0  0  0  0  0  0  0  0  0
  -13.2676  -17.8706   12.6234 N   0  0  0  0  0  0  0  0  0  0  0  0
  -12.0833  -17.6382   12.5819 O   0  0  0  0  0  0  0  0  0  0  0  0
  -12.3691  -19.9122    9.7835 C   0  0  0  0  0  0  0  0  0  0  0  0
  -11.3015  -20.0339    9.2146 O   0  0  0  0  0  0  0  0  0  0  0  0
  -13.4465  -20.5962    9.3490 O   0  0  0  0  0  0  0  0  0  0  0  0
  -13.2811  -21.3900    8.1443 C   0  0  0  0  0  0  0  0  0  0  0  0
  -14.6429  -21.9252    7.6961 C   0  0  0  0  0  0  0  0  0  0  0  0
  1  2  1  0
  2  3  2  0
  2  9  1  0
  3  4  1  0
  4  5  1  0
  4  6  2  0
  6  7  1  0
  6  8  1  0
  8  9  2  0
  8 10  1  0
 10 11  2  0
 10 12  1  0
 12 13  1  0
 13 14  2  0
 13 17  1  0
 14 15  1  0
 14 18  1  0
 15 16  2  0
 16 17  1  0
 18 19  2  0
 18 20  1  0
 20 21  1  0
 21 22  1  0
M  END
>  <Gold.Gold.Protein.RotatedWaterAtoms>  (728) 


>  <Gold.Id.Protein>  (728) 


>  <Gold.PLP.Chemscore.CHOScore>  (728) 
0.7974

>  <Gold.PLP.Chemscore.Hbond>  (728) 
2.9600

>  <Gold.PLP.Chemscore.Internal.Correction>  (728) 
0.0373

>  <Gold.PLP.Chemscore.Metal>  (728) 
0.0000

>  <Gold.PLP.Fitness>  (728) 
46.4303

>  <Gold.PLP.PLP>  (728) 
-35.4529

>  <Gold.PLP.ligand.clash>  (728) 
0.0000

>  <Gold.PLP.ligand.torsion>  (728) 
0.1660

>  <Gold.PLP.part.buried>  (728) 
-5.2545

>  <Gold.PLP.part.hbond>  (728) 
-4.3769

>  <Gold.PLP.part.metal>  (728) 
0.0000

>  <Gold.PLP.part.nonpolar>  (728) 
-25.6088

>  <Gold.PLP.part.repulsive>  (728) 
0.4876

>  <Gold.Protein.RotatedAtoms>  (728) 


>  <Gold.Protein.RotatedTorsions>  (728) 


>  <Gold.Protein.RotatedWaterAtoms>  (728) 


>  <Gold.Version>  (728) 
5.3.0

>  <PLP.Chemscore.CHOScore>  (728) 


>  <PLP.Chemscore.Hbond>  (728) 


>  <PLP.Chemscore.Internal.Correction>  (728) 


>  <PLP.Chemscore.Metal>  (728) 


>  <PLP.Fitness>  (728) 


>  <PLP.PLP>  (728) 


>  <PLP.ligand.clash>  (728) 


>  <PLP.ligand.torsion>  (728) 


>  <PLP.part.buried>  (728) 


>  <PLP.part.hbond>  (728) 


>  <PLP.part.metal>  (728) 


>  <PLP.part.nonpolar>  (728) 


>  <PLP.part.repulsive>  (728) 


>  <Version>  (728) 


$$$$
3728|Compound_663|Compounds_3D_F|sdf|203|dock10|1
     RDKit          3D

 23 24  0  0  0  0  0  0  0  0999 V2000
   -7.1594  -20.2890    9.0216 O   0  0  0  0  0  0  0  0  0  0  0  0
   -7.4796  -19.5137   10.0760 C   0  0  0  0  0  0  0  0  0  0  0  0
   -6.6317  -18.8160   10.5962 O   0  0  0  0  0  0  0  0  0  0  0  0
   -8.8634  -19.5102   10.5987 C   0  0  0  0  0  0  0  0  0  0  0  0
   -9.6702  -20.5535   10.3900 N   0  0  0  0  0  0  0  0  0  0  0  0
  -10.9049  -20.5569   10.8540 C   0  0  0  0  0  0  0  0  0  0  0  0
  -11.6901  -21.6361   10.6187 O   0  0  0  0  0  0  0  0  0  0  0  0
  -11.4012  -19.5401   11.5423 N   0  0  0  0  0  0  0  0  0  0  0  0
  -10.6695  -18.4665   11.7955 C   0  0  0  0  0  0  0  0  0  0  0  0
  -11.1872  -17.4320   12.5014 O   0  0  0  0  0  0  0  0  0  0  0  0
   -9.3461  -18.4176   11.3264 C   0  0  0  0  0  0  0  0  0  0  0  0
   -8.5403  -17.3069   11.5700 N   0  0  0  0  0  0  0  0  0  0  0  0
   -8.7843  -16.1444   10.9344 C   0  0  0  0  0  0  0  0  0  0  0  0
   -9.6751  -16.0786   10.1096 O   0  0  0  0  0  0  0  0  0  0  0  0
   -7.9679  -14.9457   11.2412 C   0  0  0  0  0  0  0  0  0  0  0  0
   -8.4939  -13.7243   11.1419 N   0  0  0  0  0  0  0  0  0  0  0  0
   -7.7732  -12.6527   11.4133 C   0  0  0  0  0  0  0  0  0  0  0  0
   -8.3454  -11.4295   11.3009 O   0  0  0  0  0  0  0  0  0  0  0  0
   -6.5084  -12.7388   11.7944 N   0  0  0  0  0  0  0  0  0  0  0  0
   -5.9115  -13.9156   11.9171 C   0  0  0  0  0  0  0  0  0  0  0  0
   -4.6156  -13.9920   12.3079 O   0  0  0  0  0  0  0  0  0  0  0  0
   -6.6399  -15.0788   11.6435 C   0  0  0  0  0  0  0  0  0  0  0  0
   -6.0683  -16.2975   11.7578 F   0  0  0  0  0  0  0  0  0  0  0  0
  1  2  1  0
  2  3  2  0
  2  4  1  0
  4  5  2  0
  4 11  1  0
  5  6  1  0
  6  7  1  0
  6  8  2  0
  8  9  1  0
  9 10  1  0
  9 11  2  0
 11 12  1  0
 12 13  1  0
 13 14  2  0
 13 15  1  0
 15 16  2  0
 15 22  1  0
 16 17  1  0
 17 18  1  0
 17 19  2  0
 19 20  1  0
 20 21  1  0
 20 22  2  0
 22 23  1  0
M  END
>  <Gold.Gold.Protein.RotatedWaterAtoms>  (729) 


>  <Gold.Id.Protein>  (729) 


>  <Gold.PLP.Chemscore.CHOScore>  (729) 
0.0000

>  <Gold.PLP.Chemscore.Hbond>  (729) 
3.0000

>  <Gold.PLP.Chemscore.Internal.Correction>  (729) 
1.1559

>  <Gold.PLP.Chemscore.Metal>  (729) 
0.0000

>  <Gold.PLP.Fitness>  (729) 
45.9301

>  <Gold.PLP.PLP>  (729) 
-38.3649

>  <Gold.PLP.ligand.clash>  (729) 
0.0000

>  <Gold.PLP.ligand.torsion>  (729) 
1.2954

>  <Gold.PLP.part.buried>  (729) 
-9.3883

>  <Gold.PLP.part.hbond>  (729) 
-5.9638

>  <Gold.PLP.part.metal>  (729) 
0.0000

>  <Gold.PLP.part.nonpolar>  (729) 
-23.0307

>  <Gold.PLP.part.repulsive>  (729) 
0.4273

>  <Gold.Protein.RotatedAtoms>  (729) 


>  <Gold.Protein.RotatedTorsions>  (729) 


>  <Gold.Protein.RotatedWaterAtoms>  (729) 


>  <Gold.Version>  (729) 
5.3.0

>  <PLP.Chemscore.CHOScore>  (729) 


>  <PLP.Chemscore.Hbond>  (729) 


>  <PLP.Chemscore.Internal.Correction>  (729) 


>  <PLP.Chemscore.Metal>  (729) 


>  <PLP.Fitness>  (729) 


>  <PLP.PLP>  (729) 


>  <PLP.ligand.clash>  (729) 


>  <PLP.ligand.torsion>  (729) 


>  <PLP.part.buried>  (729) 


>  <PLP.part.hbond>  (729) 


>  <PLP.part.metal>  (729) 


>  <PLP.part.nonpolar>  (729) 


>  <PLP.part.repulsive>  (729) 


>  <Version>  (729) 


$$$$
3729|Compound_703|Compounds_3D_F|sdf|216|dock10|1
     RDKit          3D

 20 21  0  0  0  0  0  0  0  0999 V2000
   -9.0519  -17.6194   10.7062 N   0  0  0  0  0  0  0  0  0  0  0  0
   -9.0883  -16.6172   11.6069 C   0  0  0  0  0  0  0  0  0  0  0  0
  -10.1033  -16.4073   12.2412 O   0  0  0  0  0  0  0  0  0  0  0  0
   -7.8932  -15.7741   11.8227 C   0  0  0  0  0  0  0  0  0  0  0  0
   -8.0209  -14.3868   11.9019 C   0  0  0  0  0  0  0  0  0  0  0  0
   -6.9004  -13.6035   12.1037 C   0  0  0  0  0  0  0  0  0  0  0  0
   -7.0215  -12.2604   12.1814 F   0  0  0  0  0  0  0  0  0  0  0  0
   -5.6528  -14.1927   12.2262 C   0  0  0  0  0  0  0  0  0  0  0  0
   -5.5201  -15.5691   12.1485 C   0  0  0  0  0  0  0  0  0  0  0  0
   -4.3004  -16.1381   12.2687 F   0  0  0  0  0  0  0  0  0  0  0  0
   -6.6341  -16.3631   11.9530 C   0  0  0  0  0  0  0  0  0  0  0  0
  -10.1734  -18.4072   10.4996 C   0  0  0  0  0  0  0  0  0  0  0  0
  -10.2508  -19.7052   10.6608 N   0  0  0  0  0  0  0  0  0  0  0  0
  -11.4422  -20.0994   10.3793 N   0  0  0  0  0  0  0  0  0  0  0  0
  -12.1672  -19.0757   10.0302 C   0  0  0  0  0  0  0  0  0  0  0  0
  -11.3864  -17.9810   10.1035 O   0  0  0  0  0  0  0  0  0  0  0  0
  -13.6179  -19.1100    9.6250 C   0  0  0  0  0  0  0  0  0  0  0  0
  -14.0118  -17.8403    9.1911 F   0  0  0  0  0  0  0  0  0  0  0  0
  -13.7904  -20.0317    8.5867 F   0  0  0  0  0  0  0  0  0  0  0  0
  -14.3992  -19.4911   10.7214 F   0  0  0  0  0  0  0  0  0  0  0  0
  1  2  1  0
  1 12  1  0
  2  3  2  0
  2  4  1  0
  4  5  2  0
  4 11  1  0
  5  6  1  0
  6  7  1  0
  6  8  2  0
  8  9  1  0
  9 10  1  0
  9 11  2  0
 12 13  2  0
 12 16  1  0
 13 14  1  0
 14 15  2  0
 15 16  1  0
 15 17  1  0
 17 18  1  0
 17 19  1  0
 17 20  1  0
M  END
>  <Gold.Gold.Protein.RotatedWaterAtoms>  (730) 


>  <Gold.Id.Protein>  (730) 


>  <Gold.PLP.Chemscore.CHOScore>  (730) 
0.0000

>  <Gold.PLP.Chemscore.Hbond>  (730) 
1.0000

>  <Gold.PLP.Chemscore.Internal.Correction>  (730) 
0.0003

>  <Gold.PLP.Chemscore.Metal>  (730) 
0.0000

>  <Gold.PLP.Fitness>  (730) 
55.7665

>  <Gold.PLP.PLP>  (730) 
-55.6038

>  <Gold.PLP.ligand.clash>  (730) 
0.0000

>  <Gold.PLP.ligand.torsion>  (730) 
1.4188

>  <Gold.PLP.part.buried>  (730) 
-7.7211

>  <Gold.PLP.part.hbond>  (730) 
-1.8453

>  <Gold.PLP.part.metal>  (730) 
0.0000

>  <Gold.PLP.part.nonpolar>  (730) 
-46.0977

>  <Gold.PLP.part.repulsive>  (730) 
0.0837

>  <Gold.Protein.RotatedAtoms>  (730) 


>  <Gold.Protein.RotatedTorsions>  (730) 


>  <Gold.Protein.RotatedWaterAtoms>  (730) 


>  <Gold.Version>  (730) 
5.3.0

>  <PLP.Chemscore.CHOScore>  (730) 


>  <PLP.Chemscore.Hbond>  (730) 


>  <PLP.Chemscore.Internal.Correction>  (730) 


>  <PLP.Chemscore.Metal>  (730) 


>  <PLP.Fitness>  (730) 


>  <PLP.PLP>  (730) 


>  <PLP.ligand.clash>  (730) 


>  <PLP.ligand.torsion>  (730) 


>  <PLP.part.buried>  (730) 


>  <PLP.part.hbond>  (730) 


>  <PLP.part.metal>  (730) 


>  <PLP.part.nonpolar>  (730) 


>  <PLP.part.repulsive>  (730) 


>  <Version>  (730) 


$$$$
3730|Compound_736|Compounds_3D_F|sdf|231|dock10|1
     RDKit          3D

 27 30  0  0  0  0  0  0  0  0999 V2000
  -13.1429  -20.8908   14.4243 O   0  0  0  0  0  0  0  0  0  0  0  0
  -12.7141  -21.1000   13.1578 C   0  0  0  0  0  0  0  0  0  0  0  0
  -13.4295  -21.9437   12.2871 C   0  0  0  0  0  0  0  0  0  0  0  0
  -14.5529  -22.6742   12.4053 N   0  0  0  0  0  0  0  0  0  0  0  0
  -14.8002  -23.2870   11.3003 N   0  0  0  0  0  0  0  0  0  0  0  0
  -13.8067  -22.9735   10.3610 N   0  0  0  0  0  0  0  0  0  0  0  0
  -12.9358  -22.1217   10.9824 C   0  0  0  0  0  0  0  0  0  0  0  0
  -11.8207  -21.4946   10.6196 N   0  0  0  0  0  0  0  0  0  0  0  0
  -11.1827  -20.7116   11.4715 C   0  0  0  0  0  0  0  0  0  0  0  0
  -11.6151  -20.5105   12.7097 N   0  0  0  0  0  0  0  0  0  0  0  0
  -10.0223  -20.0734   11.0552 N   0  0  0  0  0  0  0  0  0  0  0  0
   -9.7367  -18.8346   11.5033 C   0  0  0  0  0  0  0  0  0  0  0  0
  -10.5378  -18.2398   12.1991 O   0  0  0  0  0  0  0  0  0  0  0  0
   -8.4566  -18.2022   11.1506 C   0  0  0  0  0  0  0  0  0  0  0  0
   -7.3509  -18.8196   10.5898 C   0  0  0  0  0  0  0  0  0  0  0  0
   -6.3973  -17.8096   10.4455 C   0  0  0  0  0  0  0  0  0  0  0  0
   -6.9209  -16.6953   10.8912 N   0  0  0  0  0  0  0  0  0  0  0  0
   -8.1214  -16.8865   11.3042 N   0  0  0  0  0  0  0  0  0  0  0  0
   -8.9964  -15.8529   11.8646 C   0  0  0  0  0  0  0  0  0  0  0  0
   -8.2356  -14.5572   11.9781 C   0  0  0  0  0  0  0  0  0  0  0  0
   -6.9856  -14.5405   12.5686 C   0  0  0  0  0  0  0  0  0  0  0  0
   -6.2862  -13.3529   12.6728 C   0  0  0  0  0  0  0  0  0  0  0  0
   -6.8382  -12.1802   12.1873 C   0  0  0  0  0  0  0  0  0  0  0  0
   -6.1548  -11.0190   12.2880 F   0  0  0  0  0  0  0  0  0  0  0  0
   -8.0908  -12.1985   11.5967 C   0  0  0  0  0  0  0  0  0  0  0  0
   -8.7856  -13.3876   11.4883 C   0  0  0  0  0  0  0  0  0  0  0  0
   -5.0111  -17.9731    9.8773 C   0  0  0  0  0  0  0  0  0  0  0  0
  1  2  1  0
  2  3  2  0
  2 10  1  0
  3  4  1  0
  3  7  1  0
  4  5  2  0
  5  6  1  0
  6  7  1  0
  7  8  2  0
  8  9  1  0
  9 10  2  0
  9 11  1  0
 11 12  1  0
 12 13  2  0
 12 14  1  0
 14 15  2  0
 14 18  1  0
 15 16  1  0
 16 17  2  0
 16 27  1  0
 17 18  1  0
 18 19  1  0
 19 20  1  0
 20 21  2  0
 20 26  1  0
 21 22  1  0
 22 23  2  0
 23 24  1  0
 23 25  1  0
 25 26  2  0
M  END
>  <Gold.Gold.Protein.RotatedWaterAtoms>  (731) 


>  <Gold.Id.Protein>  (731) 


>  <Gold.PLP.Chemscore.CHOScore>  (731) 
0.0000

>  <Gold.PLP.Chemscore.Hbond>  (731) 
2.5675

>  <Gold.PLP.Chemscore.Internal.Correction>  (731) 
0.3752

>  <Gold.PLP.Chemscore.Metal>  (731) 
0.0000

>  <Gold.PLP.Fitness>  (731) 
60.7590

>  <Gold.PLP.PLP>  (731) 
-54.2561

>  <Gold.PLP.ligand.clash>  (731) 
0.6724

>  <Gold.PLP.ligand.torsion>  (731) 
0.4512

>  <Gold.PLP.part.buried>  (731) 
-8.8064

>  <Gold.PLP.part.hbond>  (731) 
-3.4855

>  <Gold.PLP.part.metal>  (731) 
0.0000

>  <Gold.PLP.part.nonpolar>  (731) 
-41.7825

>  <Gold.PLP.part.repulsive>  (731) 
0.2382

>  <Gold.Protein.RotatedAtoms>  (731) 


>  <Gold.Protein.RotatedTorsions>  (731) 


>  <Gold.Protein.RotatedWaterAtoms>  (731) 


>  <Gold.Version>  (731) 
5.3.0

>  <PLP.Chemscore.CHOScore>  (731) 


>  <PLP.Chemscore.Hbond>  (731) 


>  <PLP.Chemscore.Internal.Correction>  (731) 


>  <PLP.Chemscore.Metal>  (731) 


>  <PLP.Fitness>  (731) 


>  <PLP.PLP>  (731) 


>  <PLP.ligand.clash>  (731) 


>  <PLP.ligand.torsion>  (731) 


>  <PLP.part.buried>  (731) 


>  <PLP.part.hbond>  (731) 


>  <PLP.part.metal>  (731) 


>  <PLP.part.nonpolar>  (731) 


>  <PLP.part.repulsive>  (731) 


>  <Version>  (731) 


$$$$
3731|Compound_757|Compounds_3D_F|sdf|239|dock10|1
     RDKit          3D

 21 22  0  0  0  0  0  0  0  0999 V2000
   -6.1362  -18.0112   10.6718 O   0  0  0  0  0  0  0  0  0  0  0  0
   -6.9529  -19.0065   10.2775 C   0  0  0  0  0  0  0  0  0  0  0  0
   -6.5178  -19.9191    9.6053 O   0  0  0  0  0  0  0  0  0  0  0  0
   -8.3817  -18.9889   10.6636 C   0  0  0  0  0  0  0  0  0  0  0  0
   -9.1931  -19.9871   10.3056 N   0  0  0  0  0  0  0  0  0  0  0  0
  -10.4670  -19.9781   10.6458 C   0  0  0  0  0  0  0  0  0  0  0  0
  -11.2565  -21.0117   10.2617 O   0  0  0  0  0  0  0  0  0  0  0  0
  -11.0002  -18.9922   11.3519 N   0  0  0  0  0  0  0  0  0  0  0  0
  -10.2666  -17.9628   11.7477 C   0  0  0  0  0  0  0  0  0  0  0  0
  -10.8223  -16.9598   12.4705 O   0  0  0  0  0  0  0  0  0  0  0  0
   -8.9028  -17.9302   11.4132 C   0  0  0  0  0  0  0  0  0  0  0  0
   -8.0928  -16.8665   11.8097 N   0  0  0  0  0  0  0  0  0  0  0  0
   -8.2999  -15.6360   11.2989 C   0  0  0  0  0  0  0  0  0  0  0  0
   -9.1568  -15.4645   10.4545 O   0  0  0  0  0  0  0  0  0  0  0  0
   -7.4835  -14.4948   11.7674 C   0  0  0  0  0  0  0  0  0  0  0  0
   -6.2331  -14.7015   12.3647 C   0  0  0  0  0  0  0  0  0  0  0  0
   -5.7472  -15.9512   12.5254 F   0  0  0  0  0  0  0  0  0  0  0  0
   -5.5033  -13.6021   12.7875 C   0  0  0  0  0  0  0  0  0  0  0  0
   -5.9712  -12.3810   12.6335 N   0  0  0  0  0  0  0  0  0  0  0  0
   -7.1426  -12.1442   12.0763 C   0  0  0  0  0  0  0  0  0  0  0  0
   -7.9347  -13.1788   11.6216 C   0  0  0  0  0  0  0  0  0  0  0  0
  1  2  1  0
  2  3  2  0
  2  4  1  0
  4  5  2  0
  4 11  1  0
  5  6  1  0
  6  7  1  0
  6  8  2  0
  8  9  1  0
  9 10  1  0
  9 11  2  0
 11 12  1  0
 12 13  1  0
 13 14  2  0
 13 15  1  0
 15 16  2  0
 15 21  1  0
 16 17  1  0
 16 18  1  0
 18 19  2  0
 19 20  1  0
 20 21  2  0
M  END
>  <Gold.Gold.Protein.RotatedWaterAtoms>  (732) 


>  <Gold.Id.Protein>  (732) 


>  <Gold.PLP.Chemscore.CHOScore>  (732) 
1.0000

>  <Gold.PLP.Chemscore.Hbond>  (732) 
1.9600

>  <Gold.PLP.Chemscore.Internal.Correction>  (732) 
1.1578

>  <Gold.PLP.Chemscore.Metal>  (732) 
0.0000

>  <Gold.PLP.Fitness>  (732) 
52.9208

>  <Gold.PLP.PLP>  (732) 
-44.5643

>  <Gold.PLP.ligand.clash>  (732) 
0.0000

>  <Gold.PLP.ligand.torsion>  (732) 
0.8406

>  <Gold.PLP.part.buried>  (732) 
-10.0183

>  <Gold.PLP.part.hbond>  (732) 
-3.0000

>  <Gold.PLP.part.metal>  (732) 
0.0000

>  <Gold.PLP.part.nonpolar>  (732) 
-33.0128

>  <Gold.PLP.part.repulsive>  (732) 
0.4545

>  <Gold.Protein.RotatedAtoms>  (732) 


>  <Gold.Protein.RotatedTorsions>  (732) 


>  <Gold.Protein.RotatedWaterAtoms>  (732) 


>  <Gold.Version>  (732) 
5.3.0

>  <PLP.Chemscore.CHOScore>  (732) 


>  <PLP.Chemscore.Hbond>  (732) 


>  <PLP.Chemscore.Internal.Correction>  (732) 


>  <PLP.Chemscore.Metal>  (732) 


>  <PLP.Fitness>  (732) 


>  <PLP.PLP>  (732) 


>  <PLP.ligand.clash>  (732) 


>  <PLP.ligand.torsion>  (732) 


>  <PLP.part.buried>  (732) 


>  <PLP.part.hbond>  (732) 


>  <PLP.part.metal>  (732) 


>  <PLP.part.nonpolar>  (732) 


>  <PLP.part.repulsive>  (732) 


>  <Version>  (732) 


$$$$
3732|Compound_762|Compounds_3D_F|sdf|242|dock10|1
     RDKit          3D

 19 20  0  0  0  0  0  0  0  0999 V2000
   -7.9708  -15.6012   11.6084 N   0  0  0  0  0  0  0  0  0  0  0  0
   -8.4256  -14.3327   11.5732 C   0  0  0  0  0  0  0  0  0  0  0  0
   -9.5945  -14.1134   11.3240 O   0  0  0  0  0  0  0  0  0  0  0  0
   -7.5008  -13.2084   11.8382 C   0  0  0  0  0  0  0  0  0  0  0  0
   -6.1927  -13.4418   12.2815 C   0  0  0  0  0  0  0  0  0  0  0  0
   -5.7478  -14.7028   12.4753 F   0  0  0  0  0  0  0  0  0  0  0  0
   -5.3620  -12.3592   12.5169 C   0  0  0  0  0  0  0  0  0  0  0  0
   -5.7889  -11.1264   12.3291 N   0  0  0  0  0  0  0  0  0  0  0  0
   -7.0126  -10.8645   11.9130 C   0  0  0  0  0  0  0  0  0  0  0  0
   -7.9057  -11.8832   11.6481 C   0  0  0  0  0  0  0  0  0  0  0  0
   -8.8398  -16.6601   11.3541 C   0  0  0  0  0  0  0  0  0  0  0  0
  -10.0321  -16.8072   11.8604 N   0  0  0  0  0  0  0  0  0  0  0  0
  -10.5776  -18.0103   11.3467 O   0  0  0  0  0  0  0  0  0  0  0  0
   -9.6115  -18.5830   10.4834 N   0  0  0  0  0  0  0  0  0  0  0  0
   -8.5728  -17.7951   10.4660 C   0  0  0  0  0  0  0  0  0  0  0  0
   -7.4029  -18.0029    9.7347 N   0  0  0  0  0  0  0  0  0  0  0  0
   -7.4702  -18.4831    8.4778 C   0  0  0  0  0  0  0  0  0  0  0  0
   -8.5481  -18.7350    7.9815 O   0  0  0  0  0  0  0  0  0  0  0  0
   -6.2063  -18.7081    7.6882 C   0  0  0  0  0  0  0  0  0  0  0  0
  1  2  1  0
  1 11  1  0
  2  3  2  0
  2  4  1  0
  4  5  2  0
  4 10  1  0
  5  6  1  0
  5  7  1  0
  7  8  2  0
  8  9  1  0
  9 10  2  0
 11 12  2  0
 11 15  1  0
 12 13  1  0
 13 14  1  0
 14 15  2  0
 15 16  1  0
 16 17  1  0
 17 18  2  0
 17 19  1  0
M  END
>  <Gold.Gold.Protein.RotatedWaterAtoms>  (733) 


>  <Gold.Id.Protein>  (733) 


>  <Gold.PLP.Chemscore.CHOScore>  (733) 
0.9845

>  <Gold.PLP.Chemscore.Hbond>  (733) 
1.4688

>  <Gold.PLP.Chemscore.Internal.Correction>  (733) 
0.0016

>  <Gold.PLP.Chemscore.Metal>  (733) 
0.0000

>  <Gold.PLP.Fitness>  (733) 
50.0878

>  <Gold.PLP.PLP>  (733) 
-44.1940

>  <Gold.PLP.ligand.clash>  (733) 
0.0000

>  <Gold.PLP.ligand.torsion>  (733) 
0.7339

>  <Gold.PLP.part.buried>  (733) 
-10.3091

>  <Gold.PLP.part.hbond>  (733) 
-3.6366

>  <Gold.PLP.part.metal>  (733) 
0.0000

>  <Gold.PLP.part.nonpolar>  (733) 
-31.2289

>  <Gold.PLP.part.repulsive>  (733) 
0.5706

>  <Gold.Protein.RotatedAtoms>  (733) 


>  <Gold.Protein.RotatedTorsions>  (733) 


>  <Gold.Protein.RotatedWaterAtoms>  (733) 


>  <Gold.Version>  (733) 
5.3.0

>  <PLP.Chemscore.CHOScore>  (733) 


>  <PLP.Chemscore.Hbond>  (733) 


>  <PLP.Chemscore.Internal.Correction>  (733) 


>  <PLP.Chemscore.Metal>  (733) 


>  <PLP.Fitness>  (733) 


>  <PLP.PLP>  (733) 


>  <PLP.ligand.clash>  (733) 


>  <PLP.ligand.torsion>  (733) 


>  <PLP.part.buried>  (733) 


>  <PLP.part.hbond>  (733) 


>  <PLP.part.metal>  (733) 


>  <PLP.part.nonpolar>  (733) 


>  <PLP.part.repulsive>  (733) 


>  <Version>  (733) 


$$$$
3733|Compound_769|Compounds_3D_F|sdf|247|dock10|1
     RDKit          3D

 19 21  0  0  0  0  0  0  0  0999 V2000
   -8.0969  -15.0996   11.4304 N   0  0  0  0  0  0  0  0  0  0  0  0
   -6.9036  -14.5452   11.7233 C   0  0  0  0  0  0  0  0  0  0  0  0
   -5.9211  -15.2493   11.8479 O   0  0  0  0  0  0  0  0  0  0  0  0
   -6.7913  -13.0795   11.8926 C   0  0  0  0  0  0  0  0  0  0  0  0
   -7.8972  -12.2446   11.6873 C   0  0  0  0  0  0  0  0  0  0  0  0
   -9.0927  -12.7633   11.3307 F   0  0  0  0  0  0  0  0  0  0  0  0
   -7.7459  -10.8786   11.8571 C   0  0  0  0  0  0  0  0  0  0  0  0
   -6.5829  -10.3657   12.2058 N   0  0  0  0  0  0  0  0  0  0  0  0
   -5.5191  -11.1176   12.4079 C   0  0  0  0  0  0  0  0  0  0  0  0
   -5.5801  -12.4890   12.2672 C   0  0  0  0  0  0  0  0  0  0  0  0
   -8.2034  -16.4749   11.2764 C   0  0  0  0  0  0  0  0  0  0  0  0
   -7.1886  -17.1874   10.7995 N   0  0  0  0  0  0  0  0  0  0  0  0
   -7.2813  -18.4964   10.6503 C   0  0  0  0  0  0  0  0  0  0  0  0
   -8.3665  -19.1696   10.9608 N   0  0  0  0  0  0  0  0  0  0  0  0
   -9.4378  -18.5393   11.4466 C   0  0  0  0  0  0  0  0  0  0  0  0
   -9.3806  -17.1442   11.6267 C   0  0  0  0  0  0  0  0  0  0  0  0
  -10.6040  -16.7921   12.1297 N   0  0  0  0  0  0  0  0  0  0  0  0
  -11.3153  -17.8613   12.2387 N   0  0  0  0  0  0  0  0  0  0  0  0
  -10.6661  -18.9045   11.8529 N   0  0  0  0  0  0  0  0  0  0  0  0
  1  2  1  0
  1 11  1  0
  2  3  2  0
  2  4  1  0
  4  5  2  0
  4 10  1  0
  5  6  1  0
  5  7  1  0
  7  8  2  0
  8  9  1  0
  9 10  2  0
 11 12  2  0
 11 16  1  0
 12 13  1  0
 13 14  2  0
 14 15  1  0
 15 16  2  0
 15 19  1  0
 16 17  1  0
 17 18  1  0
 18 19  2  0
M  END
>  <Gold.Gold.Protein.RotatedWaterAtoms>  (734) 


>  <Gold.Id.Protein>  (734) 


>  <Gold.PLP.Chemscore.CHOScore>  (734) 
1.0000

>  <Gold.PLP.Chemscore.Hbond>  (734) 
1.0100

>  <Gold.PLP.Chemscore.Internal.Correction>  (734) 
0.2950

>  <Gold.PLP.Chemscore.Metal>  (734) 
0.0000

>  <Gold.PLP.Fitness>  (734) 
51.0214

>  <Gold.PLP.PLP>  (734) 
-45.1226

>  <Gold.PLP.ligand.clash>  (734) 
0.0000

>  <Gold.PLP.ligand.torsion>  (734) 
0.2131

>  <Gold.PLP.part.buried>  (734) 
-9.2106

>  <Gold.PLP.part.hbond>  (734) 
-2.3701

>  <Gold.PLP.part.metal>  (734) 
0.0000

>  <Gold.PLP.part.nonpolar>  (734) 
-34.5235

>  <Gold.PLP.part.repulsive>  (734) 
0.6779

>  <Gold.Protein.RotatedAtoms>  (734) 


>  <Gold.Protein.RotatedTorsions>  (734) 


>  <Gold.Protein.RotatedWaterAtoms>  (734) 


>  <Gold.Version>  (734) 
5.3.0

>  <PLP.Chemscore.CHOScore>  (734) 


>  <PLP.Chemscore.Hbond>  (734) 


>  <PLP.Chemscore.Internal.Correction>  (734) 


>  <PLP.Chemscore.Metal>  (734) 


>  <PLP.Fitness>  (734) 


>  <PLP.PLP>  (734) 


>  <PLP.ligand.clash>  (734) 


>  <PLP.ligand.torsion>  (734) 


>  <PLP.part.buried>  (734) 


>  <PLP.part.hbond>  (734) 


>  <PLP.part.metal>  (734) 


>  <PLP.part.nonpolar>  (734) 


>  <PLP.part.repulsive>  (734) 


>  <Version>  (734) 


$$$$
3734|Compound_771|Compounds_3D_F|sdf|248|dock10|1
     RDKit          3D

 26 27  0  0  0  0  0  0  0  0999 V2000
   -7.6285  -15.8916   10.6704 N   0  0  0  0  0  0  0  0  0  0  0  0
   -7.1176  -15.4679   11.8437 C   0  0  0  0  0  0  0  0  0  0  0  0
   -6.9634  -16.2534   12.7579 O   0  0  0  0  0  0  0  0  0  0  0  0
   -6.7447  -14.0464   12.0171 C   0  0  0  0  0  0  0  0  0  0  0  0
   -7.6541  -13.0228   11.7216 C   0  0  0  0  0  0  0  0  0  0  0  0
   -8.8944  -13.3144   11.2721 F   0  0  0  0  0  0  0  0  0  0  0  0
   -7.2619  -11.7066   11.8989 C   0  0  0  0  0  0  0  0  0  0  0  0
   -6.0538  -11.4147   12.3379 N   0  0  0  0  0  0  0  0  0  0  0  0
   -5.1697  -12.3490   12.6267 C   0  0  0  0  0  0  0  0  0  0  0  0
   -5.4768  -13.6869   12.4855 C   0  0  0  0  0  0  0  0  0  0  0  0
   -7.9851  -17.2309   10.5076 C   0  0  0  0  0  0  0  0  0  0  0  0
   -9.2277  -17.6112   10.7563 N   0  0  0  0  0  0  0  0  0  0  0  0
   -9.6113  -18.8704   10.6152 C   0  0  0  0  0  0  0  0  0  0  0  0
  -10.9340  -19.2250   10.8893 N   0  0  0  0  0  0  0  0  0  0  0  0
  -11.6468  -18.5215   11.7924 C   0  0  0  0  0  0  0  0  0  0  0  0
  -11.1389  -17.5813   12.3659 O   0  0  0  0  0  0  0  0  0  0  0  0
  -13.0740  -18.9031   12.0883 C   0  0  0  0  0  0  0  0  0  0  0  0
   -8.7089  -19.8474   10.1949 C   0  0  0  0  0  0  0  0  0  0  0  0
   -9.2295  -21.5217   10.0089 S   0  0  0  0  0  0  0  0  0  0  0  0
   -8.9398  -21.7449    8.2364 C   0  0  0  0  0  0  0  0  0  0  0  0
   -8.7583  -21.8842    7.1235 N   0  0  0  0  0  0  0  0  0  0  0  0
   -7.3944  -19.4849    9.9234 C   0  0  0  0  0  0  0  0  0  0  0  0
   -7.0289  -18.1520   10.0784 C   0  0  0  0  0  0  0  0  0  0  0  0
   -5.3775  -17.6362    9.7492 S   0  0  0  0  0  0  0  0  0  0  0  0
   -4.7864  -17.3720   11.4394 C   0  0  0  0  0  0  0  0  0  0  0  0
   -4.4154  -17.2054   12.5000 N   0  0  0  0  0  0  0  0  0  0  0  0
  1  2  1  0
  1 11  1  0
  2  3  2  0
  2  4  1  0
  4  5  2  0
  4 10  1  0
  5  6  1  0
  5  7  1  0
  7  8  2  0
  8  9  1  0
  9 10  2  0
 11 12  2  0
 11 23  1  0
 12 13  1  0
 13 14  1  0
 13 18  2  0
 14 15  1  0
 15 16  2  0
 15 17  1  0
 18 19  1  0
 18 22  1  0
 19 20  1  0
 20 21  3  0
 22 23  2  0
 23 24  1  0
 24 25  1  0
 25 26  3  0
M  END
>  <Gold.Gold.Protein.RotatedWaterAtoms>  (735) 


>  <Gold.Id.Protein>  (735) 


>  <Gold.PLP.Chemscore.CHOScore>  (735) 
1.6028

>  <Gold.PLP.Chemscore.Hbond>  (735) 
2.0000

>  <Gold.PLP.Chemscore.Internal.Correction>  (735) 
0.7987

>  <Gold.PLP.Chemscore.Metal>  (735) 
0.0000

>  <Gold.PLP.Fitness>  (735) 
60.2409

>  <Gold.PLP.PLP>  (735) 
-52.6896

>  <Gold.PLP.ligand.clash>  (735) 
0.0452

>  <Gold.PLP.ligand.torsion>  (735) 
2.0053

>  <Gold.PLP.part.buried>  (735) 
-10.4248

>  <Gold.PLP.part.hbond>  (735) 
-2.8463

>  <Gold.PLP.part.metal>  (735) 
0.0000

>  <Gold.PLP.part.nonpolar>  (735) 
-41.6865

>  <Gold.PLP.part.repulsive>  (735) 
0.5480

>  <Gold.Protein.RotatedAtoms>  (735) 


>  <Gold.Protein.RotatedTorsions>  (735) 


>  <Gold.Protein.RotatedWaterAtoms>  (735) 


>  <Gold.Version>  (735) 
5.3.0

>  <PLP.Chemscore.CHOScore>  (735) 


>  <PLP.Chemscore.Hbond>  (735) 


>  <PLP.Chemscore.Internal.Correction>  (735) 


>  <PLP.Chemscore.Metal>  (735) 


>  <PLP.Fitness>  (735) 


>  <PLP.PLP>  (735) 


>  <PLP.ligand.clash>  (735) 


>  <PLP.ligand.torsion>  (735) 


>  <PLP.part.buried>  (735) 


>  <PLP.part.hbond>  (735) 


>  <PLP.part.metal>  (735) 


>  <PLP.part.nonpolar>  (735) 


>  <PLP.part.repulsive>  (735) 


>  <Version>  (735) 


$$$$
3735|Compound_795|Compounds_3D_F|sdf|251|dock10|1
     RDKit          3D

 31 35  0  0  0  0  0  0  0  0999 V2000
  -15.0791  -20.8489    7.8579 O   0  0  0  0  0  0  0  0  0  0  0  0
  -14.3661  -19.8408    8.5766 C   0  0  0  0  0  0  0  0  0  0  0  0
  -13.3099  -20.4986    9.4661 C   0  0  0  0  0  0  0  0  0  0  0  0
  -12.0401  -19.8230    9.3331 O   0  0  0  0  0  0  0  0  0  0  0  0
  -11.2764  -20.1282   10.5118 C   0  0  0  0  0  0  0  0  0  0  0  0
  -10.4396  -18.9820   10.8735 N   0  0  0  0  0  0  0  0  0  0  0  0
  -10.8449  -17.8693   11.5479 C   0  0  0  0  0  0  0  0  0  0  0  0
   -9.8428  -17.0525   11.7001 N   0  0  0  0  0  0  0  0  0  0  0  0
   -8.7349  -17.5868   11.1342 C   0  0  0  0  0  0  0  0  0  0  0  0
   -9.1031  -18.8343   10.6017 C   0  0  0  0  0  0  0  0  0  0  0  0
   -8.1841  -19.5703    9.9857 N   0  0  0  0  0  0  0  0  0  0  0  0
   -6.9447  -19.1401    9.8746 C   0  0  0  0  0  0  0  0  0  0  0  0
   -6.5525  -17.9751   10.3585 N   0  0  0  0  0  0  0  0  0  0  0  0
   -7.4000  -17.1732   10.9925 C   0  0  0  0  0  0  0  0  0  0  0  0
   -6.9781  -15.9514   11.4977 N   0  0  0  0  0  0  0  0  0  0  0  0
   -7.5184  -14.8068   11.0333 C   0  0  0  0  0  0  0  0  0  0  0  0
   -8.3752  -14.8456   10.1722 O   0  0  0  0  0  0  0  0  0  0  0  0
   -7.0695  -13.5048   11.5730 C   0  0  0  0  0  0  0  0  0  0  0  0
   -7.8265  -12.3450   11.3777 C   0  0  0  0  0  0  0  0  0  0  0  0
   -7.3711  -11.1510   11.9009 C   0  0  0  0  0  0  0  0  0  0  0  0
   -6.2389  -11.0941   12.5750 N   0  0  0  0  0  0  0  0  0  0  0  0
   -5.4938  -12.1595   12.7835 C   0  0  0  0  0  0  0  0  0  0  0  0
   -5.8763  -13.3996   12.3012 C   0  0  0  0  0  0  0  0  0  0  0  0
   -5.1070  -14.4891   12.5186 F   0  0  0  0  0  0  0  0  0  0  0  0
  -12.2787  -20.4290   11.6455 C   0  0  0  0  0  0  0  0  0  0  0  0
  -12.1031  -21.8115   12.0384 O   0  0  0  0  0  0  0  0  0  0  0  0
  -13.6183  -22.2422   12.4630 P   0  0  0  0  0  0  0  0  0  0  0  0
  -13.9314  -21.8078   13.9127 O   0  0  0  0  0  0  0  0  0  0  0  0
  -13.8330  -23.7620   12.2837 O   0  0  0  0  0  0  0  0  0  0  0  0
  -14.5067  -21.3962   11.3951 O   0  0  0  0  0  0  0  0  0  0  0  0
  -13.6653  -20.3164   10.9610 C   0  0  0  0  0  0  0  0  0  0  0  0
  1  2  1  0
  2  3  1  0
  3  4  1  0
  3 31  1  0
  4  5  1  0
  5  6  1  0
  5 25  1  0
  6  7  1  0
  6 10  1  0
  7  8  2  0
  8  9  1  0
  9 10  2  0
  9 14  1  0
 10 11  1  0
 11 12  2  0
 12 13  1  0
 13 14  2  0
 14 15  1  0
 15 16  1  0
 16 17  2  0
 16 18  1  0
 18 19  2  0
 18 23  1  0
 19 20  1  0
 20 21  2  0
 21 22  1  0
 22 23  2  0
 23 24  1  0
 25 26  1  0
 25 31  1  0
 26 27  1  0
 27 28  2  0
 27 29  1  0
 27 30  1  0
 30 31  1  0
M  CHG  1  29  -1
M  END
>  <Gold.Gold.Protein.RotatedWaterAtoms>  (736) 


>  <Gold.Id.Protein>  (736) 


>  <Gold.PLP.Chemscore.CHOScore>  (736) 
1.1781

>  <Gold.PLP.Chemscore.Hbond>  (736) 
3.6128

>  <Gold.PLP.Chemscore.Internal.Correction>  (736) 
0.3321

>  <Gold.PLP.Chemscore.Metal>  (736) 
0.0000

>  <Gold.PLP.Fitness>  (736) 
65.9818

>  <Gold.PLP.PLP>  (736) 
-55.2694

>  <Gold.PLP.ligand.clash>  (736) 
0.0000

>  <Gold.PLP.ligand.torsion>  (736) 
1.9961

>  <Gold.PLP.part.buried>  (736) 
-4.7169

>  <Gold.PLP.part.hbond>  (736) 
-5.4855

>  <Gold.PLP.part.metal>  (736) 
0.0000

>  <Gold.PLP.part.nonpolar>  (736) 
-44.6395

>  <Gold.PLP.part.repulsive>  (736) 
0.7408

>  <Gold.Protein.RotatedAtoms>  (736) 


>  <Gold.Protein.RotatedTorsions>  (736) 


>  <Gold.Protein.RotatedWaterAtoms>  (736) 


>  <Gold.Version>  (736) 
5.3.0

>  <PLP.Chemscore.CHOScore>  (736) 


>  <PLP.Chemscore.Hbond>  (736) 


>  <PLP.Chemscore.Internal.Correction>  (736) 


>  <PLP.Chemscore.Metal>  (736) 


>  <PLP.Fitness>  (736) 


>  <PLP.PLP>  (736) 


>  <PLP.ligand.clash>  (736) 


>  <PLP.ligand.torsion>  (736) 


>  <PLP.part.buried>  (736) 


>  <PLP.part.hbond>  (736) 


>  <PLP.part.metal>  (736) 


>  <PLP.part.nonpolar>  (736) 


>  <PLP.part.repulsive>  (736) 


>  <Version>  (736) 


$$$$
3736|Compound_796|Compounds_3D_F|sdf|252|dock10|1
     RDKit          3D

 28 30  0  0  0  0  0  0  0  0999 V2000
  -12.1665  -18.5354   12.3239 O   0  0  0  0  0  0  0  0  0  0  0  0
  -10.9064  -18.2766   11.8987 C   0  0  0  0  0  0  0  0  0  0  0  0
  -10.1157  -19.2937   11.3431 C   0  0  0  0  0  0  0  0  0  0  0  0
  -10.3006  -20.6137   11.0903 N   0  0  0  0  0  0  0  0  0  0  0  0
   -9.2234  -21.1067   10.5520 C   0  0  0  0  0  0  0  0  0  0  0  0
   -8.2778  -20.1322   10.4246 N   0  0  0  0  0  0  0  0  0  0  0  0
   -8.8150  -18.9696   10.9179 C   0  0  0  0  0  0  0  0  0  0  0  0
   -8.3821  -17.7219   11.0552 N   0  0  0  0  0  0  0  0  0  0  0  0
   -9.1622  -16.7945   11.5846 C   0  0  0  0  0  0  0  0  0  0  0  0
  -10.3964  -17.0565   11.9951 N   0  0  0  0  0  0  0  0  0  0  0  0
   -8.6731  -15.4999   11.7126 N   0  0  0  0  0  0  0  0  0  0  0  0
   -7.3739  -15.2970   12.0058 C   0  0  0  0  0  0  0  0  0  0  0  0
   -6.6296  -16.2462   12.1591 O   0  0  0  0  0  0  0  0  0  0  0  0
   -6.8524  -13.9191   12.1419 C   0  0  0  0  0  0  0  0  0  0  0  0
   -7.6357  -12.8142   11.7867 C   0  0  0  0  0  0  0  0  0  0  0  0
   -8.8888  -12.9854   11.3109 F   0  0  0  0  0  0  0  0  0  0  0  0
   -7.1060  -11.5427   11.9317 C   0  0  0  0  0  0  0  0  0  0  0  0
   -5.8844  -11.3690   12.3954 N   0  0  0  0  0  0  0  0  0  0  0  0
   -5.1156  -12.3824   12.7409 C   0  0  0  0  0  0  0  0  0  0  0  0
   -5.5644  -13.6831   12.6343 C   0  0  0  0  0  0  0  0  0  0  0  0
   -6.9351  -20.2956    9.8624 C   0  0  0  0  0  0  0  0  0  0  0  0
   -6.1440  -18.9988   10.0484 C   0  0  0  0  0  0  0  0  0  0  0  0
   -5.1328  -18.9100    9.0426 O   0  0  0  0  0  0  0  0  0  0  0  0
   -3.7994  -18.9900    9.5501 C   0  0  0  0  0  0  0  0  0  0  0  0
   -3.0785  -17.3174    9.6281 P   0  0  0  0  0  0  0  0  0  0  0  0
   -1.6811  -17.4040   10.1096 O   0  0  0  0  0  0  0  0  0  0  0  0
   -3.1003  -16.6539    8.1613 O   0  0  0  0  0  0  0  0  0  0  0  0
   -3.9392  -16.4085   10.6402 O   0  0  0  0  0  0  0  0  0  0  0  0
  1  2  1  0
  2  3  2  0
  2 10  1  0
  3  4  1  0
  3  7  1  0
  4  5  2  0
  5  6  1  0
  6  7  1  0
  6 21  1  0
  7  8  2  0
  8  9  1  0
  9 10  2  0
  9 11  1  0
 11 12  1  0
 12 13  2  0
 12 14  1  0
 14 15  2  0
 14 20  1  0
 15 16  1  0
 15 17  1  0
 17 18  2  0
 18 19  1  0
 19 20  2  0
 21 22  1  0
 22 23  1  0
 23 24  1  0
 24 25  1  0
 25 26  2  0
 25 27  1  0
 25 28  1  0
M  END
>  <Gold.Gold.Protein.RotatedWaterAtoms>  (737) 


>  <Gold.Id.Protein>  (737) 


>  <Gold.PLP.Chemscore.CHOScore>  (737) 
1.8490

>  <Gold.PLP.Chemscore.Hbond>  (737) 
2.6480

>  <Gold.PLP.Chemscore.Internal.Correction>  (737) 
0.5982

>  <Gold.PLP.Chemscore.Metal>  (737) 
0.0000

>  <Gold.PLP.Fitness>  (737) 
69.9235

>  <Gold.PLP.PLP>  (737) 
-58.1165

>  <Gold.PLP.ligand.clash>  (737) 
0.0000

>  <Gold.PLP.ligand.torsion>  (737) 
1.1411

>  <Gold.PLP.part.buried>  (737) 
-10.7737

>  <Gold.PLP.part.hbond>  (737) 
-5.0936

>  <Gold.PLP.part.metal>  (737) 
0.0000

>  <Gold.PLP.part.nonpolar>  (737) 
-43.7118

>  <Gold.PLP.part.repulsive>  (737) 
0.5775

>  <Gold.Protein.RotatedAtoms>  (737) 


>  <Gold.Protein.RotatedTorsions>  (737) 


>  <Gold.Protein.RotatedWaterAtoms>  (737) 


>  <Gold.Version>  (737) 
5.3.0

>  <PLP.Chemscore.CHOScore>  (737) 


>  <PLP.Chemscore.Hbond>  (737) 


>  <PLP.Chemscore.Internal.Correction>  (737) 


>  <PLP.Chemscore.Metal>  (737) 


>  <PLP.Fitness>  (737) 


>  <PLP.PLP>  (737) 


>  <PLP.ligand.clash>  (737) 


>  <PLP.ligand.torsion>  (737) 


>  <PLP.part.buried>  (737) 


>  <PLP.part.hbond>  (737) 


>  <PLP.part.metal>  (737) 


>  <PLP.part.nonpolar>  (737) 


>  <PLP.part.repulsive>  (737) 


>  <Version>  (737) 


$$$$
3737|Compound_826|Compounds_3D_F|sdf|258|dock10|1
     RDKit          3D

 20 21  0  0  0  0  0  0  0  0999 V2000
   -8.4840  -15.3935    9.9126 N   0  0  0  0  0  0  0  0  0  0  0  0
   -8.2349  -15.1317   11.2113 C   0  0  0  0  0  0  0  0  0  0  0  0
   -8.5597  -15.9327   12.0654 O   0  0  0  0  0  0  0  0  0  0  0  0
   -7.5668  -13.8709   11.5949 C   0  0  0  0  0  0  0  0  0  0  0  0
   -6.2846  -13.8977   12.1489 C   0  0  0  0  0  0  0  0  0  0  0  0
   -5.3036  -15.7264   12.4368 I   0  0  0  0  0  0  0  0  0  0  0  0
   -5.6648  -12.7161   12.5057 C   0  0  0  0  0  0  0  0  0  0  0  0
   -6.3103  -11.5087   12.3167 C   0  0  0  0  0  0  0  0  0  0  0  0
   -7.5825  -11.4733   11.7675 C   0  0  0  0  0  0  0  0  0  0  0  0
   -8.2061  -10.2897   11.5851 F   0  0  0  0  0  0  0  0  0  0  0  0
   -8.2111  -12.6475   11.4008 C   0  0  0  0  0  0  0  0  0  0  0  0
   -9.1184  -16.5798    9.5504 C   0  0  0  0  0  0  0  0  0  0  0  0
  -10.2825  -16.9835    9.9765 N   0  0  0  0  0  0  0  0  0  0  0  0
  -10.5597  -18.2328    9.3671 O   0  0  0  0  0  0  0  0  0  0  0  0
   -9.4618  -18.5534    8.5314 N   0  0  0  0  0  0  0  0  0  0  0  0
   -8.5948  -17.5837    8.6197 C   0  0  0  0  0  0  0  0  0  0  0  0
   -7.3732  -17.5174    7.9488 N   0  0  0  0  0  0  0  0  0  0  0  0
   -7.1633  -18.2750    6.8547 C   0  0  0  0  0  0  0  0  0  0  0  0
   -8.0364  -19.0148    6.4525 O   0  0  0  0  0  0  0  0  0  0  0  0
   -5.8437  -18.2030    6.1300 C   0  0  0  0  0  0  0  0  0  0  0  0
  1  2  1  0
  1 12  1  0
  2  3  2  0
  2  4  1  0
  4  5  2  0
  4 11  1  0
  5  6  1  0
  5  7  1  0
  7  8  2  0
  8  9  1  0
  9 10  1  0
  9 11  2  0
 12 13  2  0
 12 16  1  0
 13 14  1  0
 14 15  1  0
 15 16  2  0
 16 17  1  0
 17 18  1  0
 18 19  2  0
 18 20  1  0
M  END
>  <Gold.Gold.Protein.RotatedWaterAtoms>  (738) 


>  <Gold.Id.Protein>  (738) 


>  <Gold.PLP.Chemscore.CHOScore>  (738) 
0.0000

>  <Gold.PLP.Chemscore.Hbond>  (738) 
1.8480

>  <Gold.PLP.Chemscore.Internal.Correction>  (738) 
0.6000

>  <Gold.PLP.Chemscore.Metal>  (738) 
0.0000

>  <Gold.PLP.Fitness>  (738) 
52.1089

>  <Gold.PLP.PLP>  (738) 
-49.6968

>  <Gold.PLP.ligand.clash>  (738) 
0.0000

>  <Gold.PLP.ligand.torsion>  (738) 
1.8660

>  <Gold.PLP.part.buried>  (738) 
-8.5583

>  <Gold.PLP.part.hbond>  (738) 
-3.4107

>  <Gold.PLP.part.metal>  (738) 
0.0000

>  <Gold.PLP.part.nonpolar>  (738) 
-38.4263

>  <Gold.PLP.part.repulsive>  (738) 
0.2264

>  <Gold.Protein.RotatedAtoms>  (738) 


>  <Gold.Protein.RotatedTorsions>  (738) 


>  <Gold.Protein.RotatedWaterAtoms>  (738) 


>  <Gold.Version>  (738) 
5.3.0

>  <PLP.Chemscore.CHOScore>  (738) 


>  <PLP.Chemscore.Hbond>  (738) 


>  <PLP.Chemscore.Internal.Correction>  (738) 


>  <PLP.Chemscore.Metal>  (738) 


>  <PLP.Fitness>  (738) 


>  <PLP.PLP>  (738) 


>  <PLP.ligand.clash>  (738) 


>  <PLP.ligand.torsion>  (738) 


>  <PLP.part.buried>  (738) 


>  <PLP.part.hbond>  (738) 


>  <PLP.part.metal>  (738) 


>  <PLP.part.nonpolar>  (738) 


>  <PLP.part.repulsive>  (738) 


>  <Version>  (738) 


$$$$
3738|Compound_837|Compounds_3D_F|sdf|261|dock10|1
     RDKit          3D

 38 42  0  0  0  0  0  0  0  0999 V2000
   -7.8834  -19.5658    8.2010 O   0  0  0  0  0  0  0  0  0  0  0  0
   -8.4762  -19.0840    9.3199 C   0  0  0  0  0  0  0  0  0  0  0  0
   -9.4267  -19.8492   10.0123 C   0  0  0  0  0  0  0  0  0  0  0  0
   -9.9681  -21.0810    9.8386 N   0  0  0  0  0  0  0  0  0  0  0  0
  -10.8244  -21.3159   10.7887 C   0  0  0  0  0  0  0  0  0  0  0  0
  -10.8875  -20.2472   11.6348 N   0  0  0  0  0  0  0  0  0  0  0  0
  -10.0105  -19.3003   11.1680 C   0  0  0  0  0  0  0  0  0  0  0  0
   -9.6469  -18.0853   11.5618 N   0  0  0  0  0  0  0  0  0  0  0  0
   -8.7468  -17.3990   10.8773 C   0  0  0  0  0  0  0  0  0  0  0  0
   -8.1674  -17.8815    9.7856 N   0  0  0  0  0  0  0  0  0  0  0  0
   -8.3920  -16.1305   11.3201 N   0  0  0  0  0  0  0  0  0  0  0  0
   -7.1330  -15.6835   11.1439 C   0  0  0  0  0  0  0  0  0  0  0  0
   -6.3081  -16.3892   10.5981 O   0  0  0  0  0  0  0  0  0  0  0  0
   -6.7560  -14.3346   11.6147 C   0  0  0  0  0  0  0  0  0  0  0  0
   -7.5969  -13.2468   11.3737 C   0  0  0  0  0  0  0  0  0  0  0  0
   -7.2382  -11.9900   11.8160 C   0  0  0  0  0  0  0  0  0  0  0  0
   -8.4993  -10.3558   11.4550 I   0  0  0  0  0  0  0  0  0  0  0  0
   -6.0488  -11.8054   12.4988 C   0  0  0  0  0  0  0  0  0  0  0  0
   -5.2106  -12.8796   12.7425 C   0  0  0  0  0  0  0  0  0  0  0  0
   -5.5587  -14.1424   12.3089 C   0  0  0  0  0  0  0  0  0  0  0  0
   -4.2880  -15.7673   12.6787 I   0  0  0  0  0  0  0  0  0  0  0  0
  -11.7339  -20.1320   12.8247 C   0  0  0  0  0  0  0  0  0  0  0  0
  -10.9904  -20.5321   13.9961 O   0  0  0  0  0  0  0  0  0  0  0  0
  -11.7122  -21.5573   14.6556 C   0  0  0  0  0  0  0  0  0  0  0  0
  -10.9143  -22.5670   15.4531 C   0  0  0  0  0  0  0  0  0  0  0  0
  -11.8706  -23.4089   16.1403 O   0  0  0  0  0  0  0  0  0  0  0  0
  -13.1053  -24.0756   15.3234 P   0  0  0  0  0  0  0  0  0  0  0  0
  -14.2408  -24.3259   16.2394 O   0  0  0  0  0  0  0  0  0  0  0  0
  -12.6329  -25.4569   14.6436 O   0  0  0  0  0  0  0  0  0  0  0  0
  -13.5433  -23.0061   14.1715 O   0  0  0  0  0  0  0  0  0  0  0  0
  -12.4728  -22.2989   13.5242 C   0  0  0  0  0  0  0  0  0  0  0  0
  -12.9529  -21.0855   12.6984 C   0  0  0  0  0  0  0  0  0  0  0  0
  -13.1963  -21.4596   11.3169 O   0  0  0  0  0  0  0  0  0  0  0  0
  -14.2640  -22.2362   11.0750 C   0  0  0  0  0  0  0  0  0  0  0  0
  -14.6452  -23.0175   11.9143 O   0  0  0  0  0  0  0  0  0  0  0  0
  -14.9882  -22.1334    9.7568 C   0  0  0  0  0  0  0  0  0  0  0  0
  -14.1805  -21.2568    8.7974 C   0  0  0  0  0  0  0  0  0  0  0  0
  -14.3499  -19.7868    9.1839 C   0  0  0  0  0  0  0  0  0  0  0  0
  1  2  1  0
  2  3  2  0
  2 10  1  0
  3  4  1  0
  3  7  1  0
  4  5  2  0
  5  6  1  0
  6  7  1  0
  6 22  1  0
  7  8  2  0
  8  9  1  0
  9 10  2  0
  9 11  1  0
 11 12  1  0
 12 13  2  0
 12 14  1  0
 14 15  2  0
 14 20  1  0
 15 16  1  0
 16 17  1  0
 16 18  2  0
 18 19  1  0
 19 20  2  0
 20 21  1  0
 22 23  1  0
 22 32  1  0
 23 24  1  0
 24 25  1  0
 24 31  1  0
 25 26  1  0
 26 27  1  0
 27 28  2  0
 27 29  1  0
 27 30  1  0
 30 31  1  0
 31 32  1  0
 32 33  1  0
 33 34  1  0
 34 35  2  0
 34 36  1  0
 36 37  1  0
 37 38  1  0
M  END
>  <Gold.Gold.Protein.RotatedWaterAtoms>  (739) 


>  <Gold.Id.Protein>  (739) 


>  <Gold.PLP.Chemscore.CHOScore>  (739) 
0.0000

>  <Gold.PLP.Chemscore.Hbond>  (739) 
2.1160

>  <Gold.PLP.Chemscore.Internal.Correction>  (739) 
1.2486

>  <Gold.PLP.Chemscore.Metal>  (739) 
0.0000

>  <Gold.PLP.Fitness>  (739) 
56.3394

>  <Gold.PLP.PLP>  (739) 
-63.9718

>  <Gold.PLP.ligand.clash>  (739) 
10.8219

>  <Gold.PLP.ligand.torsion>  (739) 
2.2035

>  <Gold.PLP.part.buried>  (739) 
-3.9491

>  <Gold.PLP.part.hbond>  (739) 
-5.0745

>  <Gold.PLP.part.metal>  (739) 
0.0000

>  <Gold.PLP.part.nonpolar>  (739) 
-57.1107

>  <Gold.PLP.part.repulsive>  (739) 
0.3682

>  <Gold.Protein.RotatedAtoms>  (739) 


>  <Gold.Protein.RotatedTorsions>  (739) 


>  <Gold.Protein.RotatedWaterAtoms>  (739) 


>  <Gold.Version>  (739) 
5.3.0

>  <PLP.Chemscore.CHOScore>  (739) 


>  <PLP.Chemscore.Hbond>  (739) 


>  <PLP.Chemscore.Internal.Correction>  (739) 


>  <PLP.Chemscore.Metal>  (739) 


>  <PLP.Fitness>  (739) 


>  <PLP.PLP>  (739) 


>  <PLP.ligand.clash>  (739) 


>  <PLP.ligand.torsion>  (739) 


>  <PLP.part.buried>  (739) 


>  <PLP.part.hbond>  (739) 


>  <PLP.part.metal>  (739) 


>  <PLP.part.nonpolar>  (739) 


>  <PLP.part.repulsive>  (739) 


>  <Version>  (739) 


$$$$
3739|Compound_847|Compounds_3D_F|sdf|269|dock10|1
     RDKit          3D

 20 22  0  0  0  0  0  0  0  0999 V2000
   -9.8524  -20.8418   10.0428 O   0  0  0  0  0  0  0  0  0  0  0  0
  -10.4841  -19.9110   10.7954 C   0  0  0  0  0  0  0  0  0  0  0  0
  -11.7025  -20.2111   11.4357 C   0  0  0  0  0  0  0  0  0  0  0  0
  -12.4832  -21.3042   11.4954 N   0  0  0  0  0  0  0  0  0  0  0  0
  -13.5164  -21.0698   12.2271 N   0  0  0  0  0  0  0  0  0  0  0  0
  -13.4600  -19.7518   12.7048 N   0  0  0  0  0  0  0  0  0  0  0  0
  -12.3117  -19.2036   12.2050 C   0  0  0  0  0  0  0  0  0  0  0  0
  -11.7240  -18.0156   12.3016 N   0  0  0  0  0  0  0  0  0  0  0  0
  -10.5799  -17.7788   11.6831 C   0  0  0  0  0  0  0  0  0  0  0  0
   -9.9670  -18.7007   10.9510 N   0  0  0  0  0  0  0  0  0  0  0  0
   -9.9965  -16.5253   11.8067 N   0  0  0  0  0  0  0  0  0  0  0  0
   -8.6562  -16.3975   11.7552 C   0  0  0  0  0  0  0  0  0  0  0  0
   -7.9576  -17.3798   11.5987 O   0  0  0  0  0  0  0  0  0  0  0  0
   -8.0362  -15.0628   11.8872 C   0  0  0  0  0  0  0  0  0  0  0  0
   -6.7171  -14.9435   12.3308 C   0  0  0  0  0  0  0  0  0  0  0  0
   -5.6110  -16.6558   12.8111 I   0  0  0  0  0  0  0  0  0  0  0  0
   -6.1440  -13.6927   12.4528 C   0  0  0  0  0  0  0  0  0  0  0  0
   -6.8737  -12.5606   12.1357 C   0  0  0  0  0  0  0  0  0  0  0  0
   -8.1806  -12.6732   11.6945 C   0  0  0  0  0  0  0  0  0  0  0  0
   -8.7639  -13.9155   11.5636 C   0  0  0  0  0  0  0  0  0  0  0  0
  1  2  1  0
  2  3  2  0
  2 10  1  0
  3  4  1  0
  3  7  1  0
  4  5  2  0
  5  6  1  0
  6  7  1  0
  7  8  2  0
  8  9  1  0
  9 10  2  0
  9 11  1  0
 11 12  1  0
 12 13  2  0
 12 14  1  0
 14 15  2  0
 14 20  1  0
 15 16  1  0
 15 17  1  0
 17 18  2  0
 18 19  1  0
 19 20  2  0
M  END
>  <Gold.Gold.Protein.RotatedWaterAtoms>  (740) 


>  <Gold.Id.Protein>  (740) 


>  <Gold.PLP.Chemscore.CHOScore>  (740) 
0.0000

>  <Gold.PLP.Chemscore.Hbond>  (740) 
1.9917

>  <Gold.PLP.Chemscore.Internal.Correction>  (740) 
0.9558

>  <Gold.PLP.Chemscore.Metal>  (740) 
0.0000

>  <Gold.PLP.Fitness>  (740) 
49.9007

>  <Gold.PLP.PLP>  (740) 
-44.6518

>  <Gold.PLP.ligand.clash>  (740) 
0.7944

>  <Gold.PLP.ligand.torsion>  (740) 
0.4439

>  <Gold.PLP.part.buried>  (740) 
-7.6933

>  <Gold.PLP.part.hbond>  (740) 
-3.3439

>  <Gold.PLP.part.metal>  (740) 
0.0000

>  <Gold.PLP.part.nonpolar>  (740) 
-33.8129

>  <Gold.PLP.part.repulsive>  (740) 
0.3518

>  <Gold.Protein.RotatedAtoms>  (740) 


>  <Gold.Protein.RotatedTorsions>  (740) 


>  <Gold.Protein.RotatedWaterAtoms>  (740) 


>  <Gold.Version>  (740) 
5.3.0

>  <PLP.Chemscore.CHOScore>  (740) 


>  <PLP.Chemscore.Hbond>  (740) 


>  <PLP.Chemscore.Internal.Correction>  (740) 


>  <PLP.Chemscore.Metal>  (740) 


>  <PLP.Fitness>  (740) 


>  <PLP.PLP>  (740) 


>  <PLP.ligand.clash>  (740) 


>  <PLP.ligand.torsion>  (740) 


>  <PLP.part.buried>  (740) 


>  <PLP.part.hbond>  (740) 


>  <PLP.part.metal>  (740) 


>  <PLP.part.nonpolar>  (740) 


>  <PLP.part.repulsive>  (740) 


>  <Version>  (740) 


$$$$
3740|Compound_888|Compounds_3D_F|sdf|271|dock10|1
     RDKit          3D

 31 34  0  0  0  0  0  0  0  0999 V2000
   -8.1489   -9.2803   11.3155 O   0  0  0  0  0  0  0  0  0  0  0  0
   -7.5637  -10.4679   11.6025 C   0  0  0  0  0  0  0  0  0  0  0  0
   -6.2874  -10.4884   11.9535 N   0  0  0  0  0  0  0  0  0  0  0  0
   -5.6784  -11.6299   12.2432 C   0  0  0  0  0  0  0  0  0  0  0  0
   -4.3721  -11.6407   12.6019 O   0  0  0  0  0  0  0  0  0  0  0  0
   -6.4031  -12.8220   12.1720 C   0  0  0  0  0  0  0  0  0  0  0  0
   -5.4965  -14.6580   12.6182 I   0  0  0  0  0  0  0  0  0  0  0  0
   -7.7429  -12.7605   11.7991 C   0  0  0  0  0  0  0  0  0  0  0  0
   -8.2840  -11.5721   11.5282 N   0  0  0  0  0  0  0  0  0  0  0  0
   -8.5576  -13.9969   11.7086 C   0  0  0  0  0  0  0  0  0  0  0  0
   -9.6768  -14.0220   12.1787 O   0  0  0  0  0  0  0  0  0  0  0  0
   -8.0555  -15.0920   11.1053 N   0  0  0  0  0  0  0  0  0  0  0  0
   -8.8152  -16.2457   11.0209 C   0  0  0  0  0  0  0  0  0  0  0  0
   -9.7338  -16.4765   10.1192 N   0  0  0  0  0  0  0  0  0  0  0  0
  -10.2819  -17.7034   10.3289 C   0  0  0  0  0  0  0  0  0  0  0  0
   -9.6404  -18.2565   11.4493 C   0  0  0  0  0  0  0  0  0  0  0  0
   -8.7136  -17.3154   11.8647 N   0  0  0  0  0  0  0  0  0  0  0  0
   -9.9986  -19.5168   11.9022 C   0  0  0  0  0  0  0  0  0  0  0  0
  -10.9889  -20.2281   11.2473 C   0  0  0  0  0  0  0  0  0  0  0  0
  -11.3410  -21.4631   11.6913 O   0  0  0  0  0  0  0  0  0  0  0  0
  -12.0133  -21.5496   12.8700 C   0  0  0  0  0  0  0  0  0  0  0  0
  -11.4780  -22.2758   13.9249 C   0  0  0  0  0  0  0  0  0  0  0  0
   -9.9477  -23.0751   13.7404 Cl  0  0  0  0  0  0  0  0  0  0  0  0
  -12.1646  -22.3622   15.1226 C   0  0  0  0  0  0  0  0  0  0  0  0
  -11.4970  -23.2697   16.4426 Cl  0  0  0  0  0  0  0  0  0  0  0  0
  -13.3838  -21.7240   15.2682 C   0  0  0  0  0  0  0  0  0  0  0  0
  -13.9179  -20.9996   14.2186 C   0  0  0  0  0  0  0  0  0  0  0  0
  -13.2341  -20.9064   13.0222 C   0  0  0  0  0  0  0  0  0  0  0  0
  -11.6275  -19.6828   10.1360 C   0  0  0  0  0  0  0  0  0  0  0  0
  -12.8688  -20.5853    9.3247 Cl  0  0  0  0  0  0  0  0  0  0  0  0
  -11.2806  -18.4320    9.6767 C   0  0  0  0  0  0  0  0  0  0  0  0
  1  2  1  0
  2  3  2  0
  2  9  1  0
  3  4  1  0
  4  5  1  0
  4  6  2  0
  6  7  1  0
  6  8  1  0
  8  9  2  0
  8 10  1  0
 10 11  2  0
 10 12  1  0
 12 13  1  0
 13 14  2  0
 13 17  1  0
 14 15  1  0
 15 16  2  0
 15 31  1  0
 16 17  1  0
 16 18  1  0
 18 19  2  0
 19 20  1  0
 19 29  1  0
 20 21  1  0
 21 22  2  0
 21 28  1  0
 22 23  1  0
 22 24  1  0
 24 25  1  0
 24 26  2  0
 26 27  1  0
 27 28  2  0
 29 30  1  0
 29 31  2  0
M  END
>  <Gold.Gold.Protein.RotatedWaterAtoms>  (741) 


>  <Gold.Id.Protein>  (741) 


>  <Gold.PLP.Chemscore.CHOScore>  (741) 
0.0000

>  <Gold.PLP.Chemscore.Hbond>  (741) 
2.0000

>  <Gold.PLP.Chemscore.Internal.Correction>  (741) 
0.4203

>  <Gold.PLP.Chemscore.Metal>  (741) 
0.0000

>  <Gold.PLP.Fitness>  (741) 
68.4735

>  <Gold.PLP.PLP>  (741) 
-65.2087

>  <Gold.PLP.ligand.clash>  (741) 
0.0000

>  <Gold.PLP.ligand.torsion>  (741) 
1.5778

>  <Gold.PLP.part.buried>  (741) 
-7.1165

>  <Gold.PLP.part.hbond>  (741) 
-5.4468

>  <Gold.PLP.part.metal>  (741) 
0.0000

>  <Gold.PLP.part.nonpolar>  (741) 
-53.0170

>  <Gold.PLP.part.repulsive>  (741) 
0.9963

>  <Gold.Protein.RotatedAtoms>  (741) 


>  <Gold.Protein.RotatedTorsions>  (741) 


>  <Gold.Protein.RotatedWaterAtoms>  (741) 


>  <Gold.Version>  (741) 
5.3.0

>  <PLP.Chemscore.CHOScore>  (741) 


>  <PLP.Chemscore.Hbond>  (741) 


>  <PLP.Chemscore.Internal.Correction>  (741) 


>  <PLP.Chemscore.Metal>  (741) 


>  <PLP.Fitness>  (741) 


>  <PLP.PLP>  (741) 


>  <PLP.ligand.clash>  (741) 


>  <PLP.ligand.torsion>  (741) 


>  <PLP.part.buried>  (741) 


>  <PLP.part.hbond>  (741) 


>  <PLP.part.metal>  (741) 


>  <PLP.part.nonpolar>  (741) 


>  <PLP.part.repulsive>  (741) 


>  <Version>  (741) 


$$$$
3741|Compound_890|Compounds_3D_F|sdf|272|dock10|1
     RDKit          3D

 20 21  0  0  0  0  0  0  0  0999 V2000
   -9.0573   -9.6336   10.8236 O   0  0  0  0  0  0  0  0  0  0  0  0
   -8.1419  -10.5090   11.3045 C   0  0  0  0  0  0  0  0  0  0  0  0
   -7.0647  -10.0429   11.9157 N   0  0  0  0  0  0  0  0  0  0  0  0
   -6.1463  -10.8664   12.3994 C   0  0  0  0  0  0  0  0  0  0  0  0
   -6.3223  -12.2302   12.2599 C   0  0  0  0  0  0  0  0  0  0  0  0
   -4.9009  -13.5760   13.0077 I   0  0  0  0  0  0  0  0  0  0  0  0
   -7.4690  -12.6904   11.6106 C   0  0  0  0  0  0  0  0  0  0  0  0
   -8.3498  -11.8066   11.1549 N   0  0  0  0  0  0  0  0  0  0  0  0
   -7.6883  -14.0525   11.4467 N   0  0  0  0  0  0  0  0  0  0  0  0
   -8.9466  -14.5276   11.3589 C   0  0  0  0  0  0  0  0  0  0  0  0
   -9.8892  -13.7638   11.4226 O   0  0  0  0  0  0  0  0  0  0  0  0
   -9.1808  -15.9819   11.1843 C   0  0  0  0  0  0  0  0  0  0  0  0
  -10.1131  -16.6079   11.9037 N   0  0  0  0  0  0  0  0  0  0  0  0
  -10.3266  -17.9020   11.7539 C   0  0  0  0  0  0  0  0  0  0  0  0
  -11.2833  -18.5018   12.5027 O   0  0  0  0  0  0  0  0  0  0  0  0
   -9.6339  -18.6301   10.8923 N   0  0  0  0  0  0  0  0  0  0  0  0
   -8.6898  -18.0802   10.1407 C   0  0  0  0  0  0  0  0  0  0  0  0
   -7.9856  -18.8330    9.2613 O   0  0  0  0  0  0  0  0  0  0  0  0
   -8.4352  -16.7128   10.2639 C   0  0  0  0  0  0  0  0  0  0  0  0
   -6.9554  -15.7864    9.1042 I   0  0  0  0  0  0  0  0  0  0  0  0
  1  2  1  0
  2  3  2  0
  2  8  1  0
  3  4  1  0
  4  5  2  0
  5  6  1  0
  5  7  1  0
  7  8  2  0
  7  9  1  0
  9 10  1  0
 10 11  2  0
 10 12  1  0
 12 13  2  0
 12 19  1  0
 13 14  1  0
 14 15  1  0
 14 16  2  0
 16 17  1  0
 17 18  1  0
 17 19  2  0
 19 20  1  0
M  END
>  <Gold.Gold.Protein.RotatedWaterAtoms>  (742) 


>  <Gold.Id.Protein>  (742) 


>  <Gold.PLP.Chemscore.CHOScore>  (742) 
0.8593

>  <Gold.PLP.Chemscore.Hbond>  (742) 
3.3648

>  <Gold.PLP.Chemscore.Internal.Correction>  (742) 
0.7101

>  <Gold.PLP.Chemscore.Metal>  (742) 
0.0000

>  <Gold.PLP.Fitness>  (742) 
51.1545

>  <Gold.PLP.PLP>  (742) 
-39.5988

>  <Gold.PLP.ligand.clash>  (742) 
0.0000

>  <Gold.PLP.ligand.torsion>  (742) 
0.9134

>  <Gold.PLP.part.buried>  (742) 
0.2554

>  <Gold.PLP.part.hbond>  (742) 
-5.5956

>  <Gold.PLP.part.metal>  (742) 
0.0000

>  <Gold.PLP.part.nonpolar>  (742) 
-34.3284

>  <Gold.PLP.part.repulsive>  (742) 
0.7531

>  <Gold.Protein.RotatedAtoms>  (742) 


>  <Gold.Protein.RotatedTorsions>  (742) 


>  <Gold.Protein.RotatedWaterAtoms>  (742) 


>  <Gold.Version>  (742) 
5.3.0

>  <PLP.Chemscore.CHOScore>  (742) 


>  <PLP.Chemscore.Hbond>  (742) 


>  <PLP.Chemscore.Internal.Correction>  (742) 


>  <PLP.Chemscore.Metal>  (742) 


>  <PLP.Fitness>  (742) 


>  <PLP.PLP>  (742) 


>  <PLP.ligand.clash>  (742) 


>  <PLP.ligand.torsion>  (742) 


>  <PLP.part.buried>  (742) 


>  <PLP.part.hbond>  (742) 


>  <PLP.part.metal>  (742) 


>  <PLP.part.nonpolar>  (742) 


>  <PLP.part.repulsive>  (742) 


>  <Version>  (742) 


$$$$
3742|Compound_892|Compounds_3D_F|sdf|273|dock10|1
     RDKit          3D

 21 22  0  0  0  0  0  0  0  0999 V2000
   -5.2401  -16.9958   12.7978 O   0  0  0  0  0  0  0  0  0  0  0  0
   -5.9565  -16.7329   11.6783 C   0  0  0  0  0  0  0  0  0  0  0  0
   -5.3635  -16.1220   10.6649 N   0  0  0  0  0  0  0  0  0  0  0  0
   -6.0296  -15.8467    9.5515 C   0  0  0  0  0  0  0  0  0  0  0  0
   -5.4130  -15.2219    8.5186 O   0  0  0  0  0  0  0  0  0  0  0  0
   -7.3746  -16.2093    9.4580 C   0  0  0  0  0  0  0  0  0  0  0  0
   -8.4788  -15.8023    7.7255 I   0  0  0  0  0  0  0  0  0  0  0  0
   -7.9626  -16.8507   10.5453 C   0  0  0  0  0  0  0  0  0  0  0  0
   -7.2246  -17.0967   11.6278 N   0  0  0  0  0  0  0  0  0  0  0  0
   -9.3889  -17.2563   10.4982 C   0  0  0  0  0  0  0  0  0  0  0  0
  -10.1452  -16.7283    9.7075 O   0  0  0  0  0  0  0  0  0  0  0  0
   -9.8451  -18.2129   11.3322 N   0  0  0  0  0  0  0  0  0  0  0  0
  -11.1846  -18.5935   11.2881 C   0  0  0  0  0  0  0  0  0  0  0  0
  -12.0922  -18.1036   10.4902 N   0  0  0  0  0  0  0  0  0  0  0  0
  -13.3158  -18.7621   10.7669 O   0  0  0  0  0  0  0  0  0  0  0  0
  -13.0741  -19.6967   11.8038 N   0  0  0  0  0  0  0  0  0  0  0  0
  -11.8124  -19.6205   12.1253 C   0  0  0  0  0  0  0  0  0  0  0  0
  -11.1728  -20.3785   13.1059 N   0  0  0  0  0  0  0  0  0  0  0  0
  -11.8978  -21.0067   14.0518 C   0  0  0  0  0  0  0  0  0  0  0  0
  -13.1064  -20.9131   14.0509 O   0  0  0  0  0  0  0  0  0  0  0  0
  -11.2065  -21.8251   15.1119 C   0  0  0  0  0  0  0  0  0  0  0  0
  1  2  1  0
  2  3  2  0
  2  9  1  0
  3  4  1  0
  4  5  1  0
  4  6  2  0
  6  7  1  0
  6  8  1  0
  8  9  2  0
  8 10  1  0
 10 11  2  0
 10 12  1  0
 12 13  1  0
 13 14  2  0
 13 17  1  0
 14 15  1  0
 15 16  1  0
 16 17  2  0
 17 18  1  0
 18 19  1  0
 19 20  2  0
 19 21  1  0
M  END
>  <Gold.Gold.Protein.RotatedWaterAtoms>  (743) 


>  <Gold.Id.Protein>  (743) 


>  <Gold.PLP.Chemscore.CHOScore>  (743) 
0.0000

>  <Gold.PLP.Chemscore.Hbond>  (743) 
1.9833

>  <Gold.PLP.Chemscore.Internal.Correction>  (743) 
0.3817

>  <Gold.PLP.Chemscore.Metal>  (743) 
0.0000

>  <Gold.PLP.Fitness>  (743) 
37.3718

>  <Gold.PLP.PLP>  (743) 
-31.5527

>  <Gold.PLP.ligand.clash>  (743) 
0.0000

>  <Gold.PLP.ligand.torsion>  (743) 
0.2563

>  <Gold.PLP.part.buried>  (743) 
-6.5871

>  <Gold.PLP.part.hbond>  (743) 
-3.9862

>  <Gold.PLP.part.metal>  (743) 
0.0000

>  <Gold.PLP.part.nonpolar>  (743) 
-20.9005

>  <Gold.PLP.part.repulsive>  (743) 
0.5527

>  <Gold.Protein.RotatedAtoms>  (743) 


>  <Gold.Protein.RotatedTorsions>  (743) 


>  <Gold.Protein.RotatedWaterAtoms>  (743) 


>  <Gold.Version>  (743) 
5.3.0

>  <PLP.Chemscore.CHOScore>  (743) 


>  <PLP.Chemscore.Hbond>  (743) 


>  <PLP.Chemscore.Internal.Correction>  (743) 


>  <PLP.Chemscore.Metal>  (743) 


>  <PLP.Fitness>  (743) 


>  <PLP.PLP>  (743) 


>  <PLP.ligand.clash>  (743) 


>  <PLP.ligand.torsion>  (743) 


>  <PLP.part.buried>  (743) 


>  <PLP.part.hbond>  (743) 


>  <PLP.part.metal>  (743) 


>  <PLP.part.nonpolar>  (743) 


>  <PLP.part.repulsive>  (743) 


>  <Version>  (743) 


$$$$
3743|Compound_894|Compounds_3D_F|sdf|274|dock10|1
     RDKit          3D

 20 21  0  0  0  0  0  0  0  0999 V2000
  -15.0040  -21.5991   13.4754 O   0  0  0  0  0  0  0  0  0  0  0  0
  -13.7751  -21.8045   12.9627 C   0  0  0  0  0  0  0  0  0  0  0  0
  -13.3984  -22.9345   12.7218 O   0  0  0  0  0  0  0  0  0  0  0  0
  -12.8861  -20.6569   12.6947 C   0  0  0  0  0  0  0  0  0  0  0  0
  -11.6217  -20.7243   12.3286 N   0  0  0  0  0  0  0  0  0  0  0  0
  -11.1313  -19.4981   12.1760 C   0  0  0  0  0  0  0  0  0  0  0  0
  -12.0752  -18.6203   12.4422 N   0  0  0  0  0  0  0  0  0  0  0  0
  -13.2275  -19.3495   12.7771 N   0  0  0  0  0  0  0  0  0  0  0  0
   -9.8232  -19.1904   11.7937 N   0  0  0  0  0  0  0  0  0  0  0  0
   -9.4897  -17.9194   11.4949 C   0  0  0  0  0  0  0  0  0  0  0  0
  -10.3261  -17.0403   11.5573 O   0  0  0  0  0  0  0  0  0  0  0  0
   -8.1004  -17.5926   11.0888 C   0  0  0  0  0  0  0  0  0  0  0  0
   -7.2916  -18.5427   10.6188 N   0  0  0  0  0  0  0  0  0  0  0  0
   -6.0536  -18.2589   10.2558 C   0  0  0  0  0  0  0  0  0  0  0  0
   -5.2626  -19.2526    9.7828 O   0  0  0  0  0  0  0  0  0  0  0  0
   -5.5642  -17.0316   10.3407 N   0  0  0  0  0  0  0  0  0  0  0  0
   -6.3064  -16.0336   10.7975 C   0  0  0  0  0  0  0  0  0  0  0  0
   -5.7965  -14.7803   10.8798 O   0  0  0  0  0  0  0  0  0  0  0  0
   -7.6235  -16.2879   11.1870 C   0  0  0  0  0  0  0  0  0  0  0  0
   -8.8449  -14.7505   11.9164 I   0  0  0  0  0  0  0  0  0  0  0  0
  1  2  1  0
  2  3  2  0
  2  4  1  0
  4  5  2  0
  4  8  1  0
  5  6  1  0
  6  7  2  0
  6  9  1  0
  7  8  1  0
  9 10  1  0
 10 11  2  0
 10 12  1  0
 12 13  2  0
 12 19  1  0
 13 14  1  0
 14 15  1  0
 14 16  2  0
 16 17  1  0
 17 18  1  0
 17 19  2  0
 19 20  1  0
M  END
>  <Gold.Gold.Protein.RotatedWaterAtoms>  (744) 


>  <Gold.Id.Protein>  (744) 


>  <Gold.PLP.Chemscore.CHOScore>  (744) 
0.0000

>  <Gold.PLP.Chemscore.Hbond>  (744) 
5.3625

>  <Gold.PLP.Chemscore.Internal.Correction>  (744) 
0.3822

>  <Gold.PLP.Chemscore.Metal>  (744) 
0.0000

>  <Gold.PLP.Fitness>  (744) 
45.0723

>  <Gold.PLP.PLP>  (744) 
-29.0620

>  <Gold.PLP.ligand.clash>  (744) 
0.0000

>  <Gold.PLP.ligand.torsion>  (744) 
0.2297

>  <Gold.PLP.part.buried>  (744) 
-5.3352

>  <Gold.PLP.part.hbond>  (744) 
-6.3959

>  <Gold.PLP.part.metal>  (744) 
0.0000

>  <Gold.PLP.part.nonpolar>  (744) 
-17.0681

>  <Gold.PLP.part.repulsive>  (744) 
0.3021

>  <Gold.Protein.RotatedAtoms>  (744) 


>  <Gold.Protein.RotatedTorsions>  (744) 


>  <Gold.Protein.RotatedWaterAtoms>  (744) 


>  <Gold.Version>  (744) 
5.3.0

>  <PLP.Chemscore.CHOScore>  (744) 


>  <PLP.Chemscore.Hbond>  (744) 


>  <PLP.Chemscore.Internal.Correction>  (744) 


>  <PLP.Chemscore.Metal>  (744) 


>  <PLP.Fitness>  (744) 


>  <PLP.PLP>  (744) 


>  <PLP.ligand.clash>  (744) 


>  <PLP.ligand.torsion>  (744) 


>  <PLP.part.buried>  (744) 


>  <PLP.part.hbond>  (744) 


>  <PLP.part.metal>  (744) 


>  <PLP.part.nonpolar>  (744) 


>  <PLP.part.repulsive>  (744) 


>  <Version>  (744) 


$$$$
3744|Compound_895|Compounds_3D_F|sdf|275|dock10|1
     RDKit          3D

 22 24  0  0  0  0  0  0  0  0999 V2000
   -8.6377   -9.9919   11.3240 O   0  0  0  0  0  0  0  0  0  0  0  0
   -7.9069  -11.1003   11.5943 C   0  0  0  0  0  0  0  0  0  0  0  0
   -6.7061  -10.9622   12.1336 N   0  0  0  0  0  0  0  0  0  0  0  0
   -5.9592  -12.0218   12.4135 C   0  0  0  0  0  0  0  0  0  0  0  0
   -4.7318  -11.8694   12.9671 O   0  0  0  0  0  0  0  0  0  0  0  0
   -6.4552  -13.2958   12.1302 C   0  0  0  0  0  0  0  0  0  0  0  0
   -5.3225  -15.0079   12.5501 I   0  0  0  0  0  0  0  0  0  0  0  0
   -7.7230  -13.3997   11.5633 C   0  0  0  0  0  0  0  0  0  0  0  0
   -8.4142  -12.2870   11.3161 N   0  0  0  0  0  0  0  0  0  0  0  0
   -8.2966  -14.7296   11.2418 C   0  0  0  0  0  0  0  0  0  0  0  0
   -8.2185  -15.1681   10.1114 O   0  0  0  0  0  0  0  0  0  0  0  0
   -8.9029  -15.4525   12.2054 N   0  0  0  0  0  0  0  0  0  0  0  0
   -9.4399  -16.6970   11.9051 C   0  0  0  0  0  0  0  0  0  0  0  0
  -10.6916  -16.9580   12.2638 N   0  0  0  0  0  0  0  0  0  0  0  0
  -11.2514  -18.1294   11.9996 C   0  0  0  0  0  0  0  0  0  0  0  0
  -12.5282  -18.3845   12.3697 O   0  0  0  0  0  0  0  0  0  0  0  0
  -10.4903  -19.1046   11.3260 C   0  0  0  0  0  0  0  0  0  0  0  0
  -10.7342  -20.3596   10.9114 N   0  0  0  0  0  0  0  0  0  0  0  0
   -9.6933  -20.8448   10.3307 N   0  0  0  0  0  0  0  0  0  0  0  0
   -8.6683  -19.8871   10.3363 N   0  0  0  0  0  0  0  0  0  0  0  0
   -9.1695  -18.7812   10.9665 C   0  0  0  0  0  0  0  0  0  0  0  0
   -8.6909  -17.5781   11.2671 N   0  0  0  0  0  0  0  0  0  0  0  0
  1  2  1  0
  2  3  2  0
  2  9  1  0
  3  4  1  0
  4  5  1  0
  4  6  2  0
  6  7  1  0
  6  8  1  0
  8  9  2  0
  8 10  1  0
 10 11  2  0
 10 12  1  0
 12 13  1  0
 13 14  2  0
 13 22  1  0
 14 15  1  0
 15 16  1  0
 15 17  2  0
 17 18  1  0
 17 21  1  0
 18 19  2  0
 19 20  1  0
 20 21  1  0
 21 22  2  0
M  END
>  <Gold.Gold.Protein.RotatedWaterAtoms>  (745) 


>  <Gold.Id.Protein>  (745) 


>  <Gold.PLP.Chemscore.CHOScore>  (745) 
0.0000

>  <Gold.PLP.Chemscore.Hbond>  (745) 
2.8775

>  <Gold.PLP.Chemscore.Internal.Correction>  (745) 
0.7711

>  <Gold.PLP.Chemscore.Metal>  (745) 
0.0000

>  <Gold.PLP.Fitness>  (745) 
52.9445

>  <Gold.PLP.PLP>  (745) 
-47.3847

>  <Gold.PLP.ligand.clash>  (745) 
0.0000

>  <Gold.PLP.ligand.torsion>  (745) 
1.9219

>  <Gold.PLP.part.buried>  (745) 
-9.7056

>  <Gold.PLP.part.hbond>  (745) 
-7.3072

>  <Gold.PLP.part.metal>  (745) 
0.0000

>  <Gold.PLP.part.nonpolar>  (745) 
-31.7007

>  <Gold.PLP.part.repulsive>  (745) 
0.6891

>  <Gold.Protein.RotatedAtoms>  (745) 


>  <Gold.Protein.RotatedTorsions>  (745) 


>  <Gold.Protein.RotatedWaterAtoms>  (745) 


>  <Gold.Version>  (745) 
5.3.0

>  <PLP.Chemscore.CHOScore>  (745) 


>  <PLP.Chemscore.Hbond>  (745) 


>  <PLP.Chemscore.Internal.Correction>  (745) 


>  <PLP.Chemscore.Metal>  (745) 


>  <PLP.Fitness>  (745) 


>  <PLP.PLP>  (745) 


>  <PLP.ligand.clash>  (745) 


>  <PLP.ligand.torsion>  (745) 


>  <PLP.part.buried>  (745) 


>  <PLP.part.hbond>  (745) 


>  <PLP.part.metal>  (745) 


>  <PLP.part.nonpolar>  (745) 


>  <PLP.part.repulsive>  (745) 


>  <Version>  (745) 


$$$$
3745|Compound_901|Compounds_3D_F|sdf|276|dock10|1
     RDKit          3D

 39 43  0  0  0  0  0  0  0  0999 V2000
  -13.1456  -18.1320    9.7888 O   0  0  0  0  0  0  0  0  0  0  0  0
  -11.9227  -18.4922   10.2474 C   0  0  0  0  0  0  0  0  0  0  0  0
  -11.5126  -19.8335   10.2142 C   0  0  0  0  0  0  0  0  0  0  0  0
  -12.0797  -20.9932    9.7971 N   0  0  0  0  0  0  0  0  0  0  0  0
  -11.2514  -21.9764    9.9955 C   0  0  0  0  0  0  0  0  0  0  0  0
  -10.0970  -21.5087   10.5519 N   0  0  0  0  0  0  0  0  0  0  0  0
  -10.2329  -20.1514   10.7029 C   0  0  0  0  0  0  0  0  0  0  0  0
   -9.4616  -19.1798   11.1769 N   0  0  0  0  0  0  0  0  0  0  0  0
   -9.8892  -17.9284   11.1888 C   0  0  0  0  0  0  0  0  0  0  0  0
  -11.0872  -17.5842   10.7329 N   0  0  0  0  0  0  0  0  0  0  0  0
   -9.0545  -16.9386   11.6922 N   0  0  0  0  0  0  0  0  0  0  0  0
   -8.8022  -15.8341   10.9630 C   0  0  0  0  0  0  0  0  0  0  0  0
   -9.3050  -15.7033    9.8637 O   0  0  0  0  0  0  0  0  0  0  0  0
   -7.9148  -14.7840   11.4988 C   0  0  0  0  0  0  0  0  0  0  0  0
   -8.2442  -13.4362   11.3374 C   0  0  0  0  0  0  0  0  0  0  0  0
   -7.4100  -12.4606   11.8407 C   0  0  0  0  0  0  0  0  0  0  0  0
   -7.9052  -10.4398   11.5990 I   0  0  0  0  0  0  0  0  0  0  0  0
   -6.2461  -12.8107   12.5063 C   0  0  0  0  0  0  0  0  0  0  0  0
   -5.9094  -14.1396   12.6729 C   0  0  0  0  0  0  0  0  0  0  0  0
   -6.7393  -15.1346   12.1777 C   0  0  0  0  0  0  0  0  0  0  0  0
   -6.4095  -16.4406   12.3407 O   0  0  0  0  0  0  0  0  0  0  0  0
   -5.0224  -16.7443   12.5009 C   0  0  0  0  0  0  0  0  0  0  0  0
   -8.9268  -22.3085   10.9218 C   0  0  0  0  0  0  0  0  0  0  0  0
   -8.8343  -23.4669   10.0656 O   0  0  0  0  0  0  0  0  0  0  0  0
   -8.7904  -24.6249   10.8813 C   0  0  0  0  0  0  0  0  0  0  0  0
   -9.3496  -25.9068   10.3010 C   0  0  0  0  0  0  0  0  0  0  0  0
   -9.0600  -26.9580   11.2535 O   0  0  0  0  0  0  0  0  0  0  0  0
   -9.4228  -26.7601   12.8235 P   0  0  0  0  0  0  0  0  0  0  0  0
   -8.5248  -27.5888   13.6582 O   0  0  0  0  0  0  0  0  0  0  0  0
  -10.9561  -27.1715   13.0889 O   0  0  0  0  0  0  0  0  0  0  0  0
   -9.2001  -25.1798   13.1642 O   0  0  0  0  0  0  0  0  0  0  0  0
   -9.6057  -24.2490   12.1469 C   0  0  0  0  0  0  0  0  0  0  0  0
   -9.0761  -22.8175   12.3811 C   0  0  0  0  0  0  0  0  0  0  0  0
  -10.0330  -22.0223   13.1277 O   0  0  0  0  0  0  0  0  0  0  0  0
  -10.2854  -22.4001   14.3907 C   0  0  0  0  0  0  0  0  0  0  0  0
   -9.6239  -23.2698   14.9044 O   0  0  0  0  0  0  0  0  0  0  0  0
  -11.3943  -21.7379   15.1683 C   0  0  0  0  0  0  0  0  0  0  0  0
  -12.7366  -22.0349   14.4964 C   0  0  0  0  0  0  0  0  0  0  0  0
  -13.8369  -21.2143   15.1714 C   0  0  0  0  0  0  0  0  0  0  0  0
  1  2  1  0
  2  3  2  0
  2 10  1  0
  3  4  1  0
  3  7  1  0
  4  5  2  0
  5  6  1  0
  6  7  1  0
  6 23  1  0
  7  8  2  0
  8  9  1  0
  9 10  2  0
  9 11  1  0
 11 12  1  0
 12 13  2  0
 12 14  1  0
 14 15  2  0
 14 20  1  0
 15 16  1  0
 16 17  1  0
 16 18  2  0
 18 19  1  0
 19 20  2  0
 20 21  1  0
 21 22  1  0
 23 24  1  0
 23 33  1  0
 24 25  1  0
 25 26  1  0
 25 32  1  0
 26 27  1  0
 27 28  1  0
 28 29  2  0
 28 30  1  0
 28 31  1  0
 31 32  1  0
 32 33  1  0
 33 34  1  0
 34 35  1  0
 35 36  2  0
 35 37  1  0
 37 38  1  0
 38 39  1  0
M  END
>  <Gold.Gold.Protein.RotatedWaterAtoms>  (746) 


>  <Gold.Id.Protein>  (746) 


>  <Gold.PLP.Chemscore.CHOScore>  (746) 
0.0000

>  <Gold.PLP.Chemscore.Hbond>  (746) 
0.9913

>  <Gold.PLP.Chemscore.Internal.Correction>  (746) 
1.3259

>  <Gold.PLP.Chemscore.Metal>  (746) 
0.0000

>  <Gold.PLP.Fitness>  (746) 
65.9026

>  <Gold.PLP.PLP>  (746) 
-66.2581

>  <Gold.PLP.ligand.clash>  (746) 
0.0000

>  <Gold.PLP.ligand.torsion>  (746) 
2.3276

>  <Gold.PLP.part.buried>  (746) 
-10.9047

>  <Gold.PLP.part.hbond>  (746) 
-2.8013

>  <Gold.PLP.part.metal>  (746) 
0.0000

>  <Gold.PLP.part.nonpolar>  (746) 
-53.3857

>  <Gold.PLP.part.repulsive>  (746) 
0.2224

>  <Gold.Protein.RotatedAtoms>  (746) 


>  <Gold.Protein.RotatedTorsions>  (746) 


>  <Gold.Protein.RotatedWaterAtoms>  (746) 


>  <Gold.Version>  (746) 
5.3.0

>  <PLP.Chemscore.CHOScore>  (746) 


>  <PLP.Chemscore.Hbond>  (746) 


>  <PLP.Chemscore.Internal.Correction>  (746) 


>  <PLP.Chemscore.Metal>  (746) 


>  <PLP.Fitness>  (746) 


>  <PLP.PLP>  (746) 


>  <PLP.ligand.clash>  (746) 


>  <PLP.ligand.torsion>  (746) 


>  <PLP.part.buried>  (746) 


>  <PLP.part.hbond>  (746) 


>  <PLP.part.metal>  (746) 


>  <PLP.part.nonpolar>  (746) 


>  <PLP.part.repulsive>  (746) 


>  <Version>  (746) 


$$$$
3746|Compound_903|Compounds_3D_F|sdf|277|dock10|1
     RDKit          3D

 37 40  0  0  0  0  0  0  0  0999 V2000
   -8.2236  -17.0473    9.1151 N   0  0  0  0  0  0  0  0  0  0  0  0
   -8.5563  -18.2108    9.7081 C   0  0  0  0  0  0  0  0  0  0  0  0
   -8.5916  -18.2875   10.9203 O   0  0  0  0  0  0  0  0  0  0  0  0
   -8.8800  -19.3952    8.8823 C   0  0  0  0  0  0  0  0  0  0  0  0
   -9.9301  -20.2538    9.2583 C   0  0  0  0  0  0  0  0  0  0  0  0
  -10.2239  -21.3647    8.4727 C   0  0  0  0  0  0  0  0  0  0  0  0
   -9.4857  -21.6189    7.3315 C   0  0  0  0  0  0  0  0  0  0  0  0
   -8.4541  -20.7742    6.9622 C   0  0  0  0  0  0  0  0  0  0  0  0
   -8.1511  -19.6639    7.7271 C   0  0  0  0  0  0  0  0  0  0  0  0
  -10.7154  -19.9784   10.4806 C   0  0  0  0  0  0  0  0  0  0  0  0
  -10.2108  -20.1348   11.5757 O   0  0  0  0  0  0  0  0  0  0  0  0
  -11.9903  -19.5544   10.3819 N   0  0  0  0  0  0  0  0  0  0  0  0
  -12.7517  -19.2329   11.5914 C   0  0  0  0  0  0  0  0  0  0  0  0
  -12.8230  -20.4490   12.4786 C   0  0  0  0  0  0  0  0  0  0  0  0
  -12.6692  -21.7107   11.9358 C   0  0  0  0  0  0  0  0  0  0  0  0
  -12.7349  -22.8260   12.7503 C   0  0  0  0  0  0  0  0  0  0  0  0
  -12.9533  -22.6790   14.1072 C   0  0  0  0  0  0  0  0  0  0  0  0
  -13.1071  -21.4172   14.6500 C   0  0  0  0  0  0  0  0  0  0  0  0
  -13.0363  -20.3017   13.8366 C   0  0  0  0  0  0  0  0  0  0  0  0
  -12.0597  -18.0931   12.3421 C   0  0  0  0  0  0  0  0  0  0  0  0
  -12.6154  -19.4144    9.0644 C   0  0  0  0  0  0  0  0  0  0  0  0
  -13.5948  -20.5400    8.8507 C   0  0  0  0  0  0  0  0  0  0  0  0
  -13.3145  -21.5351    7.9326 C   0  0  0  0  0  0  0  0  0  0  0  0
  -14.2132  -22.5672    7.7367 C   0  0  0  0  0  0  0  0  0  0  0  0
  -15.3905  -22.6051    8.4600 C   0  0  0  0  0  0  0  0  0  0  0  0
  -15.6705  -21.6106    9.3773 C   0  0  0  0  0  0  0  0  0  0  0  0
  -14.7699  -20.5808    9.5777 C   0  0  0  0  0  0  0  0  0  0  0  0
  -13.3528  -18.0757    8.9884 C   0  0  0  0  0  0  0  0  0  0  0  0
   -7.9146  -15.9328    9.8922 C   0  0  0  0  0  0  0  0  0  0  0  0
   -6.6184  -15.4275    9.8876 C   0  0  0  0  0  0  0  0  0  0  0  0
   -5.2765  -16.2409    8.8335 Br  0  0  0  0  0  0  0  0  0  0  0  0
   -6.3251  -14.3197   10.6651 C   0  0  0  0  0  0  0  0  0  0  0  0
   -7.3425  -13.7542   11.4225 C   0  0  0  0  0  0  0  0  0  0  0  0
   -7.0001  -12.2400   12.5028 Br  0  0  0  0  0  0  0  0  0  0  0  0
   -8.6067  -14.3091   11.3791 C   0  0  0  0  0  0  0  0  0  0  0  0
   -8.8581  -15.3623   10.6246 N   0  0  0  0  0  0  0  0  0  0  0  0
   -9.7158  -13.7012   12.1992 C   0  0  0  0  0  0  0  0  0  0  0  0
  1  2  1  0
  1 29  1  0
  2  3  2  0
  2  4  1  0
  4  5  1  0
  4  9  2  0
  5  6  2  0
  5 10  1  0
  6  7  1  0
  7  8  2  0
  8  9  1  0
 10 11  2  0
 10 12  1  0
 12 13  1  0
 12 21  1  0
 13 14  1  0
 13 20  1  0
 14 15  2  0
 14 19  1  0
 15 16  1  0
 16 17  2  0
 17 18  1  0
 18 19  2  0
 21 22  1  0
 21 28  1  0
 22 23  2  0
 22 27  1  0
 23 24  1  0
 24 25  2  0
 25 26  1  0
 26 27  2  0
 29 30  2  0
 29 36  1  0
 30 31  1  0
 30 32  1  0
 32 33  2  0
 33 34  1  0
 33 35  1  0
 35 36  2  0
 35 37  1  0
M  END
>  <Gold.Gold.Protein.RotatedWaterAtoms>  (747) 


>  <Gold.Id.Protein>  (747) 


>  <Gold.PLP.Chemscore.CHOScore>  (747) 
0.0000

>  <Gold.PLP.Chemscore.Hbond>  (747) 
0.0000

>  <Gold.PLP.Chemscore.Internal.Correction>  (747) 
5.7175

>  <Gold.PLP.Chemscore.Metal>  (747) 
0.0000

>  <Gold.PLP.Fitness>  (747) 
54.5192

>  <Gold.PLP.PLP>  (747) 
-56.7402

>  <Gold.PLP.ligand.clash>  (747) 
0.3572

>  <Gold.PLP.ligand.torsion>  (747) 
3.7906

>  <Gold.PLP.part.buried>  (747) 
1.9313

>  <Gold.PLP.part.hbond>  (747) 
-1.0000

>  <Gold.PLP.part.metal>  (747) 
0.0000

>  <Gold.PLP.part.nonpolar>  (747) 
-58.2392

>  <Gold.PLP.part.repulsive>  (747) 
0.1284

>  <Gold.Protein.RotatedAtoms>  (747) 


>  <Gold.Protein.RotatedTorsions>  (747) 


>  <Gold.Protein.RotatedWaterAtoms>  (747) 


>  <Gold.Version>  (747) 
5.3.0

>  <PLP.Chemscore.CHOScore>  (747) 


>  <PLP.Chemscore.Hbond>  (747) 


>  <PLP.Chemscore.Internal.Correction>  (747) 


>  <PLP.Chemscore.Metal>  (747) 


>  <PLP.Fitness>  (747) 


>  <PLP.PLP>  (747) 


>  <PLP.ligand.clash>  (747) 


>  <PLP.ligand.torsion>  (747) 


>  <PLP.part.buried>  (747) 


>  <PLP.part.hbond>  (747) 


>  <PLP.part.metal>  (747) 


>  <PLP.part.nonpolar>  (747) 


>  <PLP.part.repulsive>  (747) 


>  <Version>  (747) 


$$$$
3747|Compound_904|Compounds_3D_F|sdf|278|dock10|1
     RDKit          3D

 38 42  0  0  0  0  0  0  0  0999 V2000
   -3.4629  -24.9053   14.6269 O   0  0  0  0  0  0  0  0  0  0  0  0
   -4.7171  -25.2323   14.2327 C   0  0  0  0  0  0  0  0  0  0  0  0
   -5.7548  -24.4875   14.5893 N   0  0  0  0  0  0  0  0  0  0  0  0
   -6.9866  -24.7994   14.2075 C   0  0  0  0  0  0  0  0  0  0  0  0
   -7.2466  -25.8585   13.4594 N   0  0  0  0  0  0  0  0  0  0  0  0
   -6.2658  -26.6594   13.0582 C   0  0  0  0  0  0  0  0  0  0  0  0
   -4.9442  -26.3641   13.4332 C   0  0  0  0  0  0  0  0  0  0  0  0
   -4.1527  -27.3254   12.8977 N   0  0  0  0  0  0  0  0  0  0  0  0
   -4.8866  -28.1712   12.2359 C   0  0  0  0  0  0  0  0  0  0  0  0
   -6.1979  -27.8010   12.2997 N   0  0  0  0  0  0  0  0  0  0  0  0
   -8.0388  -23.9860   14.6075 N   0  0  0  0  0  0  0  0  0  0  0  0
   -9.0171  -23.6712   13.7350 C   0  0  0  0  0  0  0  0  0  0  0  0
   -8.9777  -24.0998   12.5989 O   0  0  0  0  0  0  0  0  0  0  0  0
  -10.1369  -22.8055   14.1609 C   0  0  0  0  0  0  0  0  0  0  0  0
  -10.6503  -21.8305   13.2862 C   0  0  0  0  0  0  0  0  0  0  0  0
  -11.7057  -21.0215   13.6988 C   0  0  0  0  0  0  0  0  0  0  0  0
  -12.2423  -21.1791   14.9629 C   0  0  0  0  0  0  0  0  0  0  0  0
  -11.7372  -22.1376   15.8237 C   0  0  0  0  0  0  0  0  0  0  0  0
  -10.6936  -22.9529   15.4287 C   0  0  0  0  0  0  0  0  0  0  0  0
  -10.0726  -21.6659   11.9337 C   0  0  0  0  0  0  0  0  0  0  0  0
   -8.9165  -21.3129   11.8056 O   0  0  0  0  0  0  0  0  0  0  0  0
  -10.8290  -21.9066   10.8444 N   0  0  0  0  0  0  0  0  0  0  0  0
  -12.2371  -22.2822   10.9985 C   0  0  0  0  0  0  0  0  0  0  0  0
  -13.1088  -21.2346   10.3546 C   0  0  0  0  0  0  0  0  0  0  0  0
  -13.8775  -21.5577    9.2523 C   0  0  0  0  0  0  0  0  0  0  0  0
  -14.6773  -20.5970    8.6614 C   0  0  0  0  0  0  0  0  0  0  0  0
  -14.7084  -19.3132    9.1729 C   0  0  0  0  0  0  0  0  0  0  0  0
  -13.9386  -18.9902   10.2751 C   0  0  0  0  0  0  0  0  0  0  0  0
  -13.1427  -19.9521   10.8691 C   0  0  0  0  0  0  0  0  0  0  0  0
  -12.4813  -23.6336   10.3236 C   0  0  0  0  0  0  0  0  0  0  0  0
  -10.2437  -21.7924    9.5061 C   0  0  0  0  0  0  0  0  0  0  0  0
   -9.6894  -20.4035    9.3171 C   0  0  0  0  0  0  0  0  0  0  0  0
  -10.4071  -19.3079    9.7583 C   0  0  0  0  0  0  0  0  0  0  0  0
   -9.8982  -18.0343    9.5853 C   0  0  0  0  0  0  0  0  0  0  0  0
   -8.6716  -17.8565    8.9722 C   0  0  0  0  0  0  0  0  0  0  0  0
   -7.9545  -18.9530    8.5318 C   0  0  0  0  0  0  0  0  0  0  0  0
   -8.4613  -20.2269    8.7088 C   0  0  0  0  0  0  0  0  0  0  0  0
   -9.1169  -22.8172    9.3537 C   0  0  0  0  0  0  0  0  0  0  0  0
  1  2  1  0
  2  3  2  0
  2  7  1  0
  3  4  1  0
  4  5  2  0
  4 11  1  0
  5  6  1  0
  6  7  2  0
  6 10  1  0
  7  8  1  0
  8  9  2  0
  9 10  1  0
 11 12  1  0
 12 13  2  0
 12 14  1  0
 14 15  1  0
 14 19  2  0
 15 16  2  0
 15 20  1  0
 16 17  1  0
 17 18  2  0
 18 19  1  0
 20 21  2  0
 20 22  1  0
 22 23  1  0
 22 31  1  0
 23 24  1  0
 23 30  1  0
 24 25  2  0
 24 29  1  0
 25 26  1  0
 26 27  2  0
 27 28  1  0
 28 29  2  0
 31 32  1  0
 31 38  1  0
 32 33  2  0
 32 37  1  0
 33 34  1  0
 34 35  2  0
 35 36  1  0
 36 37  2  0
M  END
>  <Gold.Gold.Protein.RotatedWaterAtoms>  (748) 


>  <Gold.Id.Protein>  (748) 


>  <Gold.PLP.Chemscore.CHOScore>  (748) 
0.0000

>  <Gold.PLP.Chemscore.Hbond>  (748) 
1.9280

>  <Gold.PLP.Chemscore.Internal.Correction>  (748) 
5.5985

>  <Gold.PLP.Chemscore.Metal>  (748) 
0.0000

>  <Gold.PLP.Fitness>  (748) 
49.5825

>  <Gold.PLP.PLP>  (748) 
-44.6620

>  <Gold.PLP.ligand.clash>  (748) 
1.0755

>  <Gold.PLP.ligand.torsion>  (748) 
2.6933

>  <Gold.PLP.part.buried>  (748) 
-2.7282

>  <Gold.PLP.part.hbond>  (748) 
-2.5389

>  <Gold.PLP.part.metal>  (748) 
0.0000

>  <Gold.PLP.part.nonpolar>  (748) 
-40.8679

>  <Gold.PLP.part.repulsive>  (748) 
0.0479

>  <Gold.Protein.RotatedAtoms>  (748) 


>  <Gold.Protein.RotatedTorsions>  (748) 


>  <Gold.Protein.RotatedWaterAtoms>  (748) 


>  <Gold.Version>  (748) 
5.3.0

>  <PLP.Chemscore.CHOScore>  (748) 


>  <PLP.Chemscore.Hbond>  (748) 


>  <PLP.Chemscore.Internal.Correction>  (748) 


>  <PLP.Chemscore.Metal>  (748) 


>  <PLP.Fitness>  (748) 


>  <PLP.PLP>  (748) 


>  <PLP.ligand.clash>  (748) 


>  <PLP.ligand.torsion>  (748) 


>  <PLP.part.buried>  (748) 


>  <PLP.part.hbond>  (748) 


>  <PLP.part.metal>  (748) 


>  <PLP.part.nonpolar>  (748) 


>  <PLP.part.repulsive>  (748) 


>  <Version>  (748) 


$$$$
3748|Compound_905|Compounds_3D_F|sdf|279|dock10|1
     RDKit          3D

 37 40  0  0  0  0  0  0  0  0999 V2000
  -11.2428  -24.5831    8.4742 N   0  0  0  0  0  0  0  0  0  0  0  0
  -12.5695  -24.5840    8.7116 C   0  0  0  0  0  0  0  0  0  0  0  0
  -13.1285  -25.6133    9.0350 O   0  0  0  0  0  0  0  0  0  0  0  0
  -13.3450  -23.3308    8.5805 C   0  0  0  0  0  0  0  0  0  0  0  0
  -13.1595  -22.2845    9.5039 C   0  0  0  0  0  0  0  0  0  0  0  0
  -13.8958  -21.1110    9.3692 C   0  0  0  0  0  0  0  0  0  0  0  0
  -14.8016  -20.9788    8.3335 C   0  0  0  0  0  0  0  0  0  0  0  0
  -14.9839  -22.0073    7.4263 C   0  0  0  0  0  0  0  0  0  0  0  0
  -14.2585  -23.1778    7.5412 C   0  0  0  0  0  0  0  0  0  0  0  0
  -12.1888  -22.4314   10.6100 C   0  0  0  0  0  0  0  0  0  0  0  0
  -12.3453  -23.2995   11.4455 O   0  0  0  0  0  0  0  0  0  0  0  0
  -11.1306  -21.6007   10.6922 N   0  0  0  0  0  0  0  0  0  0  0  0
  -10.9696  -20.5210    9.7153 C   0  0  0  0  0  0  0  0  0  0  0  0
  -10.1775  -19.3978   10.3335 C   0  0  0  0  0  0  0  0  0  0  0  0
  -10.7354  -18.6300   11.3384 C   0  0  0  0  0  0  0  0  0  0  0  0
  -10.0083  -17.5995   11.9050 C   0  0  0  0  0  0  0  0  0  0  0  0
   -8.7235  -17.3382   11.4674 C   0  0  0  0  0  0  0  0  0  0  0  0
   -8.1657  -18.1060   10.4625 C   0  0  0  0  0  0  0  0  0  0  0  0
   -8.8906  -19.1396    9.8995 C   0  0  0  0  0  0  0  0  0  0  0  0
  -10.2290  -21.0515    8.4858 C   0  0  0  0  0  0  0  0  0  0  0  0
  -10.1419  -21.7767   11.7588 C   0  0  0  0  0  0  0  0  0  0  0  0
  -10.8277  -21.6934   13.0984 C   0  0  0  0  0  0  0  0  0  0  0  0
  -10.2766  -22.3260   14.1975 C   0  0  0  0  0  0  0  0  0  0  0  0
  -10.9052  -22.2494   15.4257 C   0  0  0  0  0  0  0  0  0  0  0  0
  -12.0848  -21.5394   15.5555 C   0  0  0  0  0  0  0  0  0  0  0  0
  -12.6358  -20.9061   14.4572 C   0  0  0  0  0  0  0  0  0  0  0  0
  -12.0038  -20.9789   13.2293 C   0  0  0  0  0  0  0  0  0  0  0  0
   -9.4715  -23.1446   11.6134 C   0  0  0  0  0  0  0  0  0  0  0  0
  -10.5129  -25.7636    8.5924 C   0  0  0  0  0  0  0  0  0  0  0  0
   -9.5927  -26.1064    7.6081 C   0  0  0  0  0  0  0  0  0  0  0  0
   -9.2959  -24.8592    5.9508 I   0  0  0  0  0  0  0  0  0  0  0  0
   -8.8732  -27.2825    7.7378 C   0  0  0  0  0  0  0  0  0  0  0  0
   -9.1013  -28.0776    8.8533 C   0  0  0  0  0  0  0  0  0  0  0  0
   -8.1482  -29.6949    9.0842 Br  0  0  0  0  0  0  0  0  0  0  0  0
  -10.0321  -27.6759    9.7927 C   0  0  0  0  0  0  0  0  0  0  0  0
  -10.6983  -26.5464    9.6435 N   0  0  0  0  0  0  0  0  0  0  0  0
  -10.2851  -28.5341   11.0048 C   0  0  0  0  0  0  0  0  0  0  0  0
  1  2  1  0
  1 29  1  0
  2  3  2  0
  2  4  1  0
  4  5  1  0
  4  9  2  0
  5  6  2  0
  5 10  1  0
  6  7  1  0
  7  8  2  0
  8  9  1  0
 10 11  2  0
 10 12  1  0
 12 13  1  0
 12 21  1  0
 13 14  1  0
 13 20  1  0
 14 15  2  0
 14 19  1  0
 15 16  1  0
 16 17  2  0
 17 18  1  0
 18 19  2  0
 21 22  1  0
 21 28  1  0
 22 23  2  0
 22 27  1  0
 23 24  1  0
 24 25  2  0
 25 26  1  0
 26 27  2  0
 29 30  2  0
 29 36  1  0
 30 31  1  0
 30 32  1  0
 32 33  2  0
 33 34  1  0
 33 35  1  0
 35 36  2  0
 35 37  1  0
M  END
>  <Gold.Gold.Protein.RotatedWaterAtoms>  (749) 


>  <Gold.Id.Protein>  (749) 


>  <Gold.PLP.Chemscore.CHOScore>  (749) 
0.0000

>  <Gold.PLP.Chemscore.Hbond>  (749) 
0.0000

>  <Gold.PLP.Chemscore.Internal.Correction>  (749) 
5.7452

>  <Gold.PLP.Chemscore.Metal>  (749) 
0.0000

>  <Gold.PLP.Fitness>  (749) 
46.0237

>  <Gold.PLP.PLP>  (749) 
-50.0537

>  <Gold.PLP.ligand.clash>  (749) 
0.7776

>  <Gold.PLP.ligand.torsion>  (749) 
4.4988

>  <Gold.PLP.part.buried>  (749) 
-2.5115

>  <Gold.PLP.part.hbond>  (749) 
0.0000

>  <Gold.PLP.part.metal>  (749) 
0.0000

>  <Gold.PLP.part.nonpolar>  (749) 
-46.9241

>  <Gold.PLP.part.repulsive>  (749) 
0.0000

>  <Gold.Protein.RotatedAtoms>  (749) 


>  <Gold.Protein.RotatedTorsions>  (749) 


>  <Gold.Protein.RotatedWaterAtoms>  (749) 


>  <Gold.Version>  (749) 
5.3.0

>  <PLP.Chemscore.CHOScore>  (749) 


>  <PLP.Chemscore.Hbond>  (749) 


>  <PLP.Chemscore.Internal.Correction>  (749) 


>  <PLP.Chemscore.Metal>  (749) 


>  <PLP.Fitness>  (749) 


>  <PLP.PLP>  (749) 


>  <PLP.ligand.clash>  (749) 


>  <PLP.ligand.torsion>  (749) 


>  <PLP.part.buried>  (749) 


>  <PLP.part.hbond>  (749) 


>  <PLP.part.metal>  (749) 


>  <PLP.part.nonpolar>  (749) 


>  <PLP.part.repulsive>  (749) 


>  <Version>  (749) 


$$$$
3749|Compound_913|Compounds_3D_F|sdf|284|dock10|1
     RDKit          3D

 20 21  0  0  0  0  0  0  0  0999 V2000
   -8.8653  -16.6593   11.7290 N   0  0  0  0  0  0  0  0  0  0  0  0
   -8.8247  -15.3120   11.7419 C   0  0  0  0  0  0  0  0  0  0  0  0
   -9.8314  -14.6718   11.5110 O   0  0  0  0  0  0  0  0  0  0  0  0
   -7.5534  -14.6129   12.0375 C   0  0  0  0  0  0  0  0  0  0  0  0
   -6.3882  -15.3447   12.2504 C   0  0  0  0  0  0  0  0  0  0  0  0
   -5.2525  -14.7210   12.5132 N   0  0  0  0  0  0  0  0  0  0  0  0
   -5.2190  -13.4037   12.5763 C   0  0  0  0  0  0  0  0  0  0  0  0
   -6.3842  -12.6630   12.3647 C   0  0  0  0  0  0  0  0  0  0  0  0
   -7.5217  -13.2824   12.0956 N   0  0  0  0  0  0  0  0  0  0  0  0
   -6.3472  -11.2749   12.4322 N   0  0  0  0  0  0  0  0  0  0  0  0
   -7.4613  -10.4852   11.9002 C   0  0  0  0  0  0  0  0  0  0  0  0
  -10.0571  -17.3160   11.4467 C   0  0  0  0  0  0  0  0  0  0  0  0
  -11.0889  -17.5877   12.2349 N   0  0  0  0  0  0  0  0  0  0  0  0
  -12.1063  -18.2001   11.8111 N   0  0  0  0  0  0  0  0  0  0  0  0
  -12.2104  -18.6090   10.5616 C   0  0  0  0  0  0  0  0  0  0  0  0
  -10.6435  -18.0301    9.9136 S   0  0  0  0  0  0  0  0  0  0  0  0
  -13.3293  -19.3465    9.8732 C   0  0  0  0  0  0  0  0  0  0  0  0
  -13.8970  -18.5222    8.8948 F   0  0  0  0  0  0  0  0  0  0  0  0
  -12.8246  -20.5043    9.2722 F   0  0  0  0  0  0  0  0  0  0  0  0
  -14.3051  -19.6955   10.8121 F   0  0  0  0  0  0  0  0  0  0  0  0
  1  2  1  0
  1 12  1  0
  2  3  2  0
  2  4  1  0
  4  5  2  0
  4  9  1  0
  5  6  1  0
  6  7  2  0
  7  8  1  0
  8  9  2  0
  8 10  1  0
 10 11  1  0
 12 13  2  0
 12 16  1  0
 13 14  1  0
 14 15  2  0
 15 16  1  0
 15 17  1  0
 17 18  1  0
 17 19  1  0
 17 20  1  0
M  END
>  <Gold.Gold.Protein.RotatedWaterAtoms>  (750) 


>  <Gold.Id.Protein>  (750) 


>  <Gold.PLP.Chemscore.CHOScore>  (750) 
1.0000

>  <Gold.PLP.Chemscore.Hbond>  (750) 
0.9500

>  <Gold.PLP.Chemscore.Internal.Correction>  (750) 
0.0066

>  <Gold.PLP.Chemscore.Metal>  (750) 
0.0000

>  <Gold.PLP.Fitness>  (750) 
50.4498

>  <Gold.PLP.PLP>  (750) 
-46.3457

>  <Gold.PLP.ligand.clash>  (750) 
0.0000

>  <Gold.PLP.ligand.torsion>  (750) 
0.8763

>  <Gold.PLP.part.buried>  (750) 
-5.7593

>  <Gold.PLP.part.hbond>  (750) 
-1.7771

>  <Gold.PLP.part.metal>  (750) 
0.0000

>  <Gold.PLP.part.nonpolar>  (750) 
-39.6358

>  <Gold.PLP.part.repulsive>  (750) 
0.7091

>  <Gold.Protein.RotatedAtoms>  (750) 


>  <Gold.Protein.RotatedTorsions>  (750) 


>  <Gold.Protein.RotatedWaterAtoms>  (750) 


>  <Gold.Version>  (750) 
5.3.0

>  <PLP.Chemscore.CHOScore>  (750) 


>  <PLP.Chemscore.Hbond>  (750) 


>  <PLP.Chemscore.Internal.Correction>  (750) 


>  <PLP.Chemscore.Metal>  (750) 


>  <PLP.Fitness>  (750) 


>  <PLP.PLP>  (750) 


>  <PLP.ligand.clash>  (750) 


>  <PLP.ligand.torsion>  (750) 


>  <PLP.part.buried>  (750) 


>  <PLP.part.hbond>  (750) 


>  <PLP.part.metal>  (750) 


>  <PLP.part.nonpolar>  (750) 


>  <PLP.part.repulsive>  (750) 


>  <Version>  (750) 


$$$$
3750|Compound_923|Compounds_3D_F|sdf|289|dock10|1
     RDKit          3D

 20 21  0  0  0  0  0  0  0  0999 V2000
   -9.0351  -17.7242   11.6336 N   0  0  0  0  0  0  0  0  0  0  0  0
   -8.7078  -16.4232   11.7668 C   0  0  0  0  0  0  0  0  0  0  0  0
   -9.5774  -15.5728   11.7516 O   0  0  0  0  0  0  0  0  0  0  0  0
   -7.2962  -16.0309   11.9308 C   0  0  0  0  0  0  0  0  0  0  0  0
   -6.2900  -17.0008   11.9922 C   0  0  0  0  0  0  0  0  0  0  0  0
   -4.9810  -16.5808   12.1460 C   0  0  0  0  0  0  0  0  0  0  0  0
   -4.7052  -15.2277   12.2354 C   0  0  0  0  0  0  0  0  0  0  0  0
   -5.6679  -14.3291   12.1757 N   0  0  0  0  0  0  0  0  0  0  0  0
   -6.9369  -14.6750   12.0237 C   0  0  0  0  0  0  0  0  0  0  0  0
   -7.9144  -13.6990   11.9665 N   0  0  0  0  0  0  0  0  0  0  0  0
   -7.5346  -12.2857   11.9001 C   0  0  0  0  0  0  0  0  0  0  0  0
  -10.3694  -18.0947   11.4729 C   0  0  0  0  0  0  0  0  0  0  0  0
  -11.3904  -17.6738   12.1728 N   0  0  0  0  0  0  0  0  0  0  0  0
  -12.4225  -18.1777   11.7947 O   0  0  0  0  0  0  0  0  0  0  0  0
  -12.2207  -19.0191   10.7711 C   0  0  0  0  0  0  0  0  0  0  0  0
  -10.8924  -19.0011   10.5129 C   0  0  0  0  0  0  0  0  0  0  0  0
  -13.2678  -19.8237   10.0458 C   0  0  0  0  0  0  0  0  0  0  0  0
  -14.2511  -18.8758    9.3546 C   0  0  0  0  0  0  0  0  0  0  0  0
  -12.5932  -20.7112    8.9978 C   0  0  0  0  0  0  0  0  0  0  0  0
  -14.0226  -20.6997   11.0470 C   0  0  0  0  0  0  0  0  0  0  0  0
  1  2  1  0
  1 12  1  0
  2  3  2  0
  2  4  1  0
  4  5  2  0
  4  9  1  0
  5  6  1  0
  6  7  2  0
  7  8  1  0
  8  9  2  0
  9 10  1  0
 10 11  1  0
 12 13  2  0
 12 16  1  0
 13 14  1  0
 14 15  1  0
 15 16  2  0
 15 17  1  0
 17 18  1  0
 17 19  1  0
 17 20  1  0
M  END
>  <Gold.Gold.Protein.RotatedWaterAtoms>  (751) 


>  <Gold.Id.Protein>  (751) 


>  <Gold.PLP.Chemscore.CHOScore>  (751) 
1.1528

>  <Gold.PLP.Chemscore.Hbond>  (751) 
1.8697

>  <Gold.PLP.Chemscore.Internal.Correction>  (751) 
0.0064

>  <Gold.PLP.Chemscore.Metal>  (751) 
0.0000

>  <Gold.PLP.Fitness>  (751) 
52.9294

>  <Gold.PLP.PLP>  (751) 
-44.7577

>  <Gold.PLP.ligand.clash>  (751) 
0.0000

>  <Gold.PLP.ligand.torsion>  (751) 
0.4510

>  <Gold.PLP.part.buried>  (751) 
-7.0387

>  <Gold.PLP.part.hbond>  (751) 
-3.2847

>  <Gold.PLP.part.metal>  (751) 
0.0000

>  <Gold.PLP.part.nonpolar>  (751) 
-35.4086

>  <Gold.PLP.part.repulsive>  (751) 
0.5155

>  <Gold.Protein.RotatedAtoms>  (751) 


>  <Gold.Protein.RotatedTorsions>  (751) 


>  <Gold.Protein.RotatedWaterAtoms>  (751) 


>  <Gold.Version>  (751) 
5.3.0

>  <PLP.Chemscore.CHOScore>  (751) 


>  <PLP.Chemscore.Hbond>  (751) 


>  <PLP.Chemscore.Internal.Correction>  (751) 


>  <PLP.Chemscore.Metal>  (751) 


>  <PLP.Fitness>  (751) 


>  <PLP.PLP>  (751) 


>  <PLP.ligand.clash>  (751) 


>  <PLP.ligand.torsion>  (751) 


>  <PLP.part.buried>  (751) 


>  <PLP.part.hbond>  (751) 


>  <PLP.part.metal>  (751) 


>  <PLP.part.nonpolar>  (751) 


>  <PLP.part.repulsive>  (751) 


>  <Version>  (751) 


$$$$
3751|Compound_937|Compounds_3D_F|sdf|292|dock10|1
     RDKit          3D

 20 21  0  0  0  0  0  0  0  0999 V2000
   -8.3522  -16.0575   11.9845 N   0  0  0  0  0  0  0  0  0  0  0  0
   -8.5988  -14.7378   12.1073 C   0  0  0  0  0  0  0  0  0  0  0  0
   -9.7451  -14.3307   12.1070 O   0  0  0  0  0  0  0  0  0  0  0  0
   -7.4796  -13.7880   12.2431 C   0  0  0  0  0  0  0  0  0  0  0  0
   -7.7183  -12.4115   12.3162 C   0  0  0  0  0  0  0  0  0  0  0  0
   -6.6338  -11.5623   12.4440 C   0  0  0  0  0  0  0  0  0  0  0  0
   -5.3560  -12.0911   12.4940 C   0  0  0  0  0  0  0  0  0  0  0  0
   -5.1518  -13.3916   12.4232 N   0  0  0  0  0  0  0  0  0  0  0  0
   -6.1532  -14.2499   12.3060 C   0  0  0  0  0  0  0  0  0  0  0  0
   -5.8931  -15.6059   12.2357 N   0  0  0  0  0  0  0  0  0  0  0  0
   -4.5084  -16.0843   12.1921 C   0  0  0  0  0  0  0  0  0  0  0  0
   -9.4101  -16.9541   11.8506 C   0  0  0  0  0  0  0  0  0  0  0  0
  -10.6472  -16.7335   12.1987 N   0  0  0  0  0  0  0  0  0  0  0  0
  -11.3977  -17.8961   11.8939 O   0  0  0  0  0  0  0  0  0  0  0  0
  -10.5101  -18.8436   11.3300 N   0  0  0  0  0  0  0  0  0  0  0  0
   -9.3231  -18.3056   11.2881 C   0  0  0  0  0  0  0  0  0  0  0  0
   -8.1673  -18.9133   10.7996 N   0  0  0  0  0  0  0  0  0  0  0  0
   -8.2264  -20.1591   10.2865 C   0  0  0  0  0  0  0  0  0  0  0  0
   -9.2844  -20.7500   10.2495 O   0  0  0  0  0  0  0  0  0  0  0  0
   -6.9767  -20.8161    9.7590 C   0  0  0  0  0  0  0  0  0  0  0  0
  1  2  1  0
  1 12  1  0
  2  3  2  0
  2  4  1  0
  4  5  2  0
  4  9  1  0
  5  6  1  0
  6  7  2  0
  7  8  1  0
  8  9  2  0
  9 10  1  0
 10 11  1  0
 12 13  2  0
 12 16  1  0
 13 14  1  0
 14 15  1  0
 15 16  2  0
 16 17  1  0
 17 18  1  0
 18 19  2  0
 18 20  1  0
M  END
>  <Gold.Gold.Protein.RotatedWaterAtoms>  (752) 


>  <Gold.Id.Protein>  (752) 


>  <Gold.PLP.Chemscore.CHOScore>  (752) 
0.9995

>  <Gold.PLP.Chemscore.Hbond>  (752) 
0.9600

>  <Gold.PLP.Chemscore.Internal.Correction>  (752) 
0.0070

>  <Gold.PLP.Chemscore.Metal>  (752) 
0.0000

>  <Gold.PLP.Fitness>  (752) 
49.4378

>  <Gold.PLP.PLP>  (752) 
-43.7637

>  <Gold.PLP.ligand.clash>  (752) 
0.0000

>  <Gold.PLP.ligand.torsion>  (752) 
0.1057

>  <Gold.PLP.part.buried>  (752) 
-10.4496

>  <Gold.PLP.part.hbond>  (752) 
-2.5177

>  <Gold.PLP.part.metal>  (752) 
0.0000

>  <Gold.PLP.part.nonpolar>  (752) 
-31.8811

>  <Gold.PLP.part.repulsive>  (752) 
0.7612

>  <Gold.Protein.RotatedAtoms>  (752) 


>  <Gold.Protein.RotatedTorsions>  (752) 


>  <Gold.Protein.RotatedWaterAtoms>  (752) 


>  <Gold.Version>  (752) 
5.3.0

>  <PLP.Chemscore.CHOScore>  (752) 


>  <PLP.Chemscore.Hbond>  (752) 


>  <PLP.Chemscore.Internal.Correction>  (752) 


>  <PLP.Chemscore.Metal>  (752) 


>  <PLP.Fitness>  (752) 


>  <PLP.PLP>  (752) 


>  <PLP.ligand.clash>  (752) 


>  <PLP.ligand.torsion>  (752) 


>  <PLP.part.buried>  (752) 


>  <PLP.part.hbond>  (752) 


>  <PLP.part.metal>  (752) 


>  <PLP.part.nonpolar>  (752) 


>  <PLP.part.repulsive>  (752) 


>  <Version>  (752) 


$$$$
3752|Compound_939|Compounds_3D_F|sdf|294|dock10|1
     RDKit          3D

 37 41  0  0  0  0  0  0  0  0999 V2000
   -8.7746  -19.5602    7.8636 O   0  0  0  0  0  0  0  0  0  0  0  0
   -9.0914  -19.1319    9.1093 C   0  0  0  0  0  0  0  0  0  0  0  0
   -9.7690  -19.9733   10.0045 C   0  0  0  0  0  0  0  0  0  0  0  0
  -10.2422  -21.2434    9.9459 N   0  0  0  0  0  0  0  0  0  0  0  0
  -10.8023  -21.5498   11.0788 C   0  0  0  0  0  0  0  0  0  0  0  0
  -10.7243  -20.4932   11.9388 N   0  0  0  0  0  0  0  0  0  0  0  0
  -10.0727  -19.4776   11.2850 C   0  0  0  0  0  0  0  0  0  0  0  0
   -9.7122  -18.2393   11.6016 N   0  0  0  0  0  0  0  0  0  0  0  0
   -9.0752  -17.4806   10.7251 C   0  0  0  0  0  0  0  0  0  0  0  0
   -8.7641  -17.9107    9.5091 N   0  0  0  0  0  0  0  0  0  0  0  0
   -8.7145  -16.1899   11.0926 N   0  0  0  0  0  0  0  0  0  0  0  0
   -7.4168  -15.8815   11.2827 C   0  0  0  0  0  0  0  0  0  0  0  0
   -6.5612  -16.7323   11.1324 O   0  0  0  0  0  0  0  0  0  0  0  0
   -7.0335  -14.5090   11.6733 C   0  0  0  0  0  0  0  0  0  0  0  0
   -5.8208  -14.2803   12.1643 N   0  0  0  0  0  0  0  0  0  0  0  0
   -5.4372  -13.0762   12.5241 C   0  0  0  0  0  0  0  0  0  0  0  0
   -6.2989  -11.9863   12.4007 C   0  0  0  0  0  0  0  0  0  0  0  0
   -5.8842  -10.7153   12.7833 N   0  0  0  0  0  0  0  0  0  0  0  0
   -7.5805  -12.1866   11.8892 C   0  0  0  0  0  0  0  0  0  0  0  0
   -7.9481  -13.4661   11.5167 C   0  0  0  0  0  0  0  0  0  0  0  0
  -11.2404  -20.4503   13.3094 C   0  0  0  0  0  0  0  0  0  0  0  0
  -10.3798  -21.2148   14.1811 O   0  0  0  0  0  0  0  0  0  0  0  0
  -11.1676  -22.1860   14.8477 C   0  0  0  0  0  0  0  0  0  0  0  0
  -10.4843  -23.4728   15.2596 C   0  0  0  0  0  0  0  0  0  0  0  0
  -11.4440  -24.2260   16.0386 O   0  0  0  0  0  0  0  0  0  0  0  0
  -12.9492  -24.4575   15.4770 P   0  0  0  0  0  0  0  0  0  0  0  0
  -13.8859  -24.6526   16.6059 O   0  0  0  0  0  0  0  0  0  0  0  0
  -12.9830  -25.7411   14.5070 O   0  0  0  0  0  0  0  0  0  0  0  0
  -13.3544  -23.1148   14.6429 O   0  0  0  0  0  0  0  0  0  0  0  0
  -12.3110  -22.5208   13.8528 C   0  0  0  0  0  0  0  0  0  0  0  0
  -12.6506  -21.0963   13.3620 C   0  0  0  0  0  0  0  0  0  0  0  0
  -13.2702  -21.1320   12.0487 O   0  0  0  0  0  0  0  0  0  0  0  0
  -13.5695  -19.9515   11.4845 C   0  0  0  0  0  0  0  0  0  0  0  0
  -13.2243  -18.9230   12.0161 O   0  0  0  0  0  0  0  0  0  0  0  0
  -14.3366  -19.9094   10.1881 C   0  0  0  0  0  0  0  0  0  0  0  0
  -14.1860  -18.5266    9.5506 C   0  0  0  0  0  0  0  0  0  0  0  0
  -12.7122  -18.2675    9.2348 C   0  0  0  0  0  0  0  0  0  0  0  0
  1  2  1  0
  2  3  2  0
  2 10  1  0
  3  4  1  0
  3  7  1  0
  4  5  2  0
  5  6  1  0
  6  7  1  0
  6 21  1  0
  7  8  2  0
  8  9  1  0
  9 10  2  0
  9 11  1  0
 11 12  1  0
 12 13  2  0
 12 14  1  0
 14 15  2  0
 14 20  1  0
 15 16  1  0
 16 17  2  0
 17 18  1  0
 17 19  1  0
 19 20  2  0
 21 22  1  0
 21 31  1  0
 22 23  1  0
 23 24  1  0
 23 30  1  0
 24 25  1  0
 25 26  1  0
 26 27  2  0
 26 28  1  0
 26 29  1  0
 29 30  1  0
 30 31  1  0
 31 32  1  0
 32 33  1  0
 33 34  2  0
 33 35  1  0
 35 36  1  0
 36 37  1  0
M  END
>  <Gold.Gold.Protein.RotatedWaterAtoms>  (753) 


>  <Gold.Id.Protein>  (753) 


>  <Gold.PLP.Chemscore.CHOScore>  (753) 
1.0000

>  <Gold.PLP.Chemscore.Hbond>  (753) 
1.4010

>  <Gold.PLP.Chemscore.Internal.Correction>  (753) 
0.5883

>  <Gold.PLP.Chemscore.Metal>  (753) 
0.0000

>  <Gold.PLP.Fitness>  (753) 
62.5205

>  <Gold.PLP.PLP>  (753) 
-60.0091

>  <Gold.PLP.ligand.clash>  (753) 
2.3571

>  <Gold.PLP.ligand.torsion>  (753) 
1.4614

>  <Gold.PLP.part.buried>  (753) 
-4.7684

>  <Gold.PLP.part.hbond>  (753) 
-6.1944

>  <Gold.PLP.part.metal>  (753) 
0.0000

>  <Gold.PLP.part.nonpolar>  (753) 
-50.7485

>  <Gold.PLP.part.repulsive>  (753) 
0.6810

>  <Gold.Protein.RotatedAtoms>  (753) 


>  <Gold.Protein.RotatedTorsions>  (753) 


>  <Gold.Protein.RotatedWaterAtoms>  (753) 


>  <Gold.Version>  (753) 
5.3.0

>  <PLP.Chemscore.CHOScore>  (753) 


>  <PLP.Chemscore.Hbond>  (753) 


>  <PLP.Chemscore.Internal.Correction>  (753) 


>  <PLP.Chemscore.Metal>  (753) 


>  <PLP.Fitness>  (753) 


>  <PLP.PLP>  (753) 


>  <PLP.ligand.clash>  (753) 


>  <PLP.ligand.torsion>  (753) 


>  <PLP.part.buried>  (753) 


>  <PLP.part.hbond>  (753) 


>  <PLP.part.metal>  (753) 


>  <PLP.part.nonpolar>  (753) 


>  <PLP.part.repulsive>  (753) 


>  <Version>  (753) 


$$$$
3753|Compound_942|Compounds_3D_F|sdf|296|dock10|1
     RDKit          3D

 29 32  0  0  0  0  0  0  0  0999 V2000
   -4.2948  -12.0820   12.8083 N   0  0  0  0  0  0  0  0  0  0  0  0
   -5.6268  -11.9496   12.4353 C   0  0  0  0  0  0  0  0  0  0  0  0
   -6.1596  -10.6780   12.2227 C   0  0  0  0  0  0  0  0  0  0  0  0
   -7.4865  -10.5541   11.8509 C   0  0  0  0  0  0  0  0  0  0  0  0
   -8.2442  -11.7066   11.7017 C   0  0  0  0  0  0  0  0  0  0  0  0
   -7.6511  -12.9452   11.9289 C   0  0  0  0  0  0  0  0  0  0  0  0
   -6.3727  -13.0286   12.2809 N   0  0  0  0  0  0  0  0  0  0  0  0
   -8.4515  -14.1809   11.7738 C   0  0  0  0  0  0  0  0  0  0  0  0
   -9.6458  -14.1095   11.5588 O   0  0  0  0  0  0  0  0  0  0  0  0
   -7.8551  -15.3868   11.8704 N   0  0  0  0  0  0  0  0  0  0  0  0
   -8.6030  -16.5415   11.7253 C   0  0  0  0  0  0  0  0  0  0  0  0
   -8.1268  -17.7035   11.3574 N   0  0  0  0  0  0  0  0  0  0  0  0
   -9.1332  -18.6168   11.3166 C   0  0  0  0  0  0  0  0  0  0  0  0
  -10.3110  -17.9512   11.6916 C   0  0  0  0  0  0  0  0  0  0  0  0
   -9.9462  -16.6399   11.9491 N   0  0  0  0  0  0  0  0  0  0  0  0
  -11.5134  -18.6411   11.7411 C   0  0  0  0  0  0  0  0  0  0  0  0
  -11.5472  -19.9862   11.4203 C   0  0  0  0  0  0  0  0  0  0  0  0
  -12.7256  -20.6641   11.4683 O   0  0  0  0  0  0  0  0  0  0  0  0
  -13.3880  -20.8766   10.3012 C   0  0  0  0  0  0  0  0  0  0  0  0
  -13.6329  -22.1712    9.8655 C   0  0  0  0  0  0  0  0  0  0  0  0
  -13.0941  -23.5230   10.8120 Cl  0  0  0  0  0  0  0  0  0  0  0  0
  -14.3079  -22.3836    8.6771 C   0  0  0  0  0  0  0  0  0  0  0  0
  -14.6160  -24.0027    8.1307 Cl  0  0  0  0  0  0  0  0  0  0  0  0
  -14.7385  -21.3055    7.9230 C   0  0  0  0  0  0  0  0  0  0  0  0
  -14.4953  -20.0152    8.3554 C   0  0  0  0  0  0  0  0  0  0  0  0
  -13.8264  -19.7982    9.5445 C   0  0  0  0  0  0  0  0  0  0  0  0
  -10.3813  -20.6503   11.0475 C   0  0  0  0  0  0  0  0  0  0  0  0
  -10.4398  -22.3383   10.6481 Cl  0  0  0  0  0  0  0  0  0  0  0  0
   -9.1813  -19.9766   10.9951 C   0  0  0  0  0  0  0  0  0  0  0  0
  1  2  1  0
  2  3  2  0
  2  7  1  0
  3  4  1  0
  4  5  2  0
  5  6  1  0
  6  7  2  0
  6  8  1  0
  8  9  2  0
  8 10  1  0
 10 11  1  0
 11 12  2  0
 11 15  1  0
 12 13  1  0
 13 14  2  0
 13 29  1  0
 14 15  1  0
 14 16  1  0
 16 17  2  0
 17 18  1  0
 17 27  1  0
 18 19  1  0
 19 20  2  0
 19 26  1  0
 20 21  1  0
 20 22  1  0
 22 23  1  0
 22 24  2  0
 24 25  1  0
 25 26  2  0
 27 28  1  0
 27 29  2  0
M  END
>  <Gold.Gold.Protein.RotatedWaterAtoms>  (754) 


>  <Gold.Id.Protein>  (754) 


>  <Gold.PLP.Chemscore.CHOScore>  (754) 
0.0000

>  <Gold.PLP.Chemscore.Hbond>  (754) 
1.7440

>  <Gold.PLP.Chemscore.Internal.Correction>  (754) 
0.0452

>  <Gold.PLP.Chemscore.Metal>  (754) 
0.0000

>  <Gold.PLP.Fitness>  (754) 
72.1803

>  <Gold.PLP.PLP>  (754) 
-67.7618

>  <Gold.PLP.ligand.clash>  (754) 
0.0000

>  <Gold.PLP.ligand.torsion>  (754) 
0.4294

>  <Gold.PLP.part.buried>  (754) 
-8.8103

>  <Gold.PLP.part.hbond>  (754) 
-3.8513

>  <Gold.PLP.part.metal>  (754) 
0.0000

>  <Gold.PLP.part.nonpolar>  (754) 
-55.5022

>  <Gold.PLP.part.repulsive>  (754) 
0.6997

>  <Gold.Protein.RotatedAtoms>  (754) 


>  <Gold.Protein.RotatedTorsions>  (754) 


>  <Gold.Protein.RotatedWaterAtoms>  (754) 


>  <Gold.Version>  (754) 
5.3.0

>  <PLP.Chemscore.CHOScore>  (754) 


>  <PLP.Chemscore.Hbond>  (754) 


>  <PLP.Chemscore.Internal.Correction>  (754) 


>  <PLP.Chemscore.Metal>  (754) 


>  <PLP.Fitness>  (754) 


>  <PLP.PLP>  (754) 


>  <PLP.ligand.clash>  (754) 


>  <PLP.ligand.torsion>  (754) 


>  <PLP.part.buried>  (754) 


>  <PLP.part.hbond>  (754) 


>  <PLP.part.metal>  (754) 


>  <PLP.part.nonpolar>  (754) 


>  <PLP.part.repulsive>  (754) 


>  <Version>  (754) 


$$$$
3754|Compound_945|Compounds_3D_F|sdf|297|dock10|1
     RDKit          3D

 19 20  0  0  0  0  0  0  0  0999 V2000
   -4.1520  -15.4999   11.9058 N   0  0  0  0  0  0  0  0  0  0  0  0
   -5.4387  -14.9869   12.0175 C   0  0  0  0  0  0  0  0  0  0  0  0
   -5.6268  -13.6957   12.5104 C   0  0  0  0  0  0  0  0  0  0  0  0
   -6.9097  -13.1931   12.6183 C   0  0  0  0  0  0  0  0  0  0  0  0
   -7.9734  -13.9963   12.2304 C   0  0  0  0  0  0  0  0  0  0  0  0
   -7.7171  -15.2762   11.7472 C   0  0  0  0  0  0  0  0  0  0  0  0
   -6.4708  -15.7259   11.6514 N   0  0  0  0  0  0  0  0  0  0  0  0
   -8.8436  -16.1421   11.3310 C   0  0  0  0  0  0  0  0  0  0  0  0
   -9.8820  -16.1341   11.9626 O   0  0  0  0  0  0  0  0  0  0  0  0
   -8.7173  -16.9387   10.2512 N   0  0  0  0  0  0  0  0  0  0  0  0
   -9.7722  -17.7494    9.8608 C   0  0  0  0  0  0  0  0  0  0  0  0
   -9.6971  -18.8008    9.0831 N   0  0  0  0  0  0  0  0  0  0  0  0
  -10.8702  -19.3075    8.9369 N   0  0  0  0  0  0  0  0  0  0  0  0
  -11.7341  -18.6043    9.6095 C   0  0  0  0  0  0  0  0  0  0  0  0
  -11.0620  -17.6053   10.2145 O   0  0  0  0  0  0  0  0  0  0  0  0
  -13.2158  -18.8624    9.7009 C   0  0  0  0  0  0  0  0  0  0  0  0
  -13.5388  -19.9948    8.9443 F   0  0  0  0  0  0  0  0  0  0  0  0
  -13.5710  -19.0780   11.0366 F   0  0  0  0  0  0  0  0  0  0  0  0
  -13.9137  -17.7562    9.2052 F   0  0  0  0  0  0  0  0  0  0  0  0
  1  2  1  0
  2  3  2  0
  2  7  1  0
  3  4  1  0
  4  5  2  0
  5  6  1  0
  6  7  2  0
  6  8  1  0
  8  9  2  0
  8 10  1  0
 10 11  1  0
 11 12  2  0
 11 15  1  0
 12 13  1  0
 13 14  2  0
 14 15  1  0
 14 16  1  0
 16 17  1  0
 16 18  1  0
 16 19  1  0
M  END
>  <Gold.Gold.Protein.RotatedWaterAtoms>  (755) 


>  <Gold.Id.Protein>  (755) 


>  <Gold.PLP.Chemscore.CHOScore>  (755) 
0.0000

>  <Gold.PLP.Chemscore.Hbond>  (755) 
2.0000

>  <Gold.PLP.Chemscore.Internal.Correction>  (755) 
0.0002

>  <Gold.PLP.Chemscore.Metal>  (755) 
0.0000

>  <Gold.PLP.Fitness>  (755) 
51.7749

>  <Gold.PLP.PLP>  (755) 
-47.0670

>  <Gold.PLP.ligand.clash>  (755) 
0.0000

>  <Gold.PLP.ligand.torsion>  (755) 
0.6461

>  <Gold.PLP.part.buried>  (755) 
-7.2239

>  <Gold.PLP.part.hbond>  (755) 
-5.2756

>  <Gold.PLP.part.metal>  (755) 
0.0000

>  <Gold.PLP.part.nonpolar>  (755) 
-35.4645

>  <Gold.PLP.part.repulsive>  (755) 
0.2820

>  <Gold.Protein.RotatedAtoms>  (755) 


>  <Gold.Protein.RotatedTorsions>  (755) 


>  <Gold.Protein.RotatedWaterAtoms>  (755) 


>  <Gold.Version>  (755) 
5.3.0

>  <PLP.Chemscore.CHOScore>  (755) 


>  <PLP.Chemscore.Hbond>  (755) 


>  <PLP.Chemscore.Internal.Correction>  (755) 


>  <PLP.Chemscore.Metal>  (755) 


>  <PLP.Fitness>  (755) 


>  <PLP.PLP>  (755) 


>  <PLP.ligand.clash>  (755) 


>  <PLP.ligand.torsion>  (755) 


>  <PLP.part.buried>  (755) 


>  <PLP.part.hbond>  (755) 


>  <PLP.part.metal>  (755) 


>  <PLP.part.nonpolar>  (755) 


>  <PLP.part.repulsive>  (755) 


>  <Version>  (755) 


$$$$
3755|Compound_947|Compounds_3D_F|sdf|298|dock10|1
     RDKit          3D

 19 20  0  0  0  0  0  0  0  0999 V2000
   -4.0780  -15.3881   12.0899 N   0  0  0  0  0  0  0  0  0  0  0  0
   -5.2631  -14.6690   12.1872 C   0  0  0  0  0  0  0  0  0  0  0  0
   -5.2274  -13.3272   12.5666 C   0  0  0  0  0  0  0  0  0  0  0  0
   -6.4105  -12.6192   12.6609 C   0  0  0  0  0  0  0  0  0  0  0  0
   -7.6012  -13.2726   12.3736 C   0  0  0  0  0  0  0  0  0  0  0  0
   -7.5675  -14.6133   12.0011 C   0  0  0  0  0  0  0  0  0  0  0  0
   -6.4116  -15.2624   11.9150 N   0  0  0  0  0  0  0  0  0  0  0  0
   -8.8309  -15.3207   11.6928 C   0  0  0  0  0  0  0  0  0  0  0  0
   -9.8299  -14.6871   11.4136 O   0  0  0  0  0  0  0  0  0  0  0  0
   -8.8731  -16.6676   11.7222 N   0  0  0  0  0  0  0  0  0  0  0  0
  -10.0597  -17.3322   11.4332 C   0  0  0  0  0  0  0  0  0  0  0  0
  -11.0728  -17.6525   12.2269 N   0  0  0  0  0  0  0  0  0  0  0  0
  -12.0874  -18.2639   11.7946 N   0  0  0  0  0  0  0  0  0  0  0  0
  -12.2067  -18.6223   10.5323 C   0  0  0  0  0  0  0  0  0  0  0  0
  -10.6617  -17.9926    9.8819 S   0  0  0  0  0  0  0  0  0  0  0  0
  -13.3262  -19.3506    9.8328 C   0  0  0  0  0  0  0  0  0  0  0  0
  -14.2836  -19.7452   10.7732 F   0  0  0  0  0  0  0  0  0  0  0  0
  -13.9185  -18.5017    8.8920 F   0  0  0  0  0  0  0  0  0  0  0  0
  -12.8155  -20.4801    9.1856 F   0  0  0  0  0  0  0  0  0  0  0  0
  1  2  1  0
  2  3  2  0
  2  7  1  0
  3  4  1  0
  4  5  2  0
  5  6  1  0
  6  7  2  0
  6  8  1  0
  8  9  2  0
  8 10  1  0
 10 11  1  0
 11 12  2  0
 11 15  1  0
 12 13  1  0
 13 14  2  0
 14 15  1  0
 14 16  1  0
 16 17  1  0
 16 18  1  0
 16 19  1  0
M  END
>  <Gold.Gold.Protein.RotatedWaterAtoms>  (756) 


>  <Gold.Id.Protein>  (756) 


>  <Gold.PLP.Chemscore.CHOScore>  (756) 
0.0000

>  <Gold.PLP.Chemscore.Hbond>  (756) 
2.3312

>  <Gold.PLP.Chemscore.Internal.Correction>  (756) 
0.0001

>  <Gold.PLP.Chemscore.Metal>  (756) 
0.0000

>  <Gold.PLP.Fitness>  (756) 
48.7753

>  <Gold.PLP.PLP>  (756) 
-43.7738

>  <Gold.PLP.ligand.clash>  (756) 
0.0000

>  <Gold.PLP.ligand.torsion>  (756) 
0.9961

>  <Gold.PLP.part.buried>  (756) 
-3.3525

>  <Gold.PLP.part.hbond>  (756) 
-3.3457

>  <Gold.PLP.part.metal>  (756) 
0.0000

>  <Gold.PLP.part.nonpolar>  (756) 
-38.7873

>  <Gold.PLP.part.repulsive>  (756) 
0.4862

>  <Gold.Protein.RotatedAtoms>  (756) 


>  <Gold.Protein.RotatedTorsions>  (756) 


>  <Gold.Protein.RotatedWaterAtoms>  (756) 


>  <Gold.Version>  (756) 
5.3.0

>  <PLP.Chemscore.CHOScore>  (756) 


>  <PLP.Chemscore.Hbond>  (756) 


>  <PLP.Chemscore.Internal.Correction>  (756) 


>  <PLP.Chemscore.Metal>  (756) 


>  <PLP.Fitness>  (756) 


>  <PLP.PLP>  (756) 


>  <PLP.ligand.clash>  (756) 


>  <PLP.ligand.torsion>  (756) 


>  <PLP.part.buried>  (756) 


>  <PLP.part.hbond>  (756) 


>  <PLP.part.metal>  (756) 


>  <PLP.part.nonpolar>  (756) 


>  <PLP.part.repulsive>  (756) 


>  <Version>  (756) 


$$$$
3756|Compound_955|Compounds_3D_F|sdf|302|dock10|1
     RDKit          3D

 19 20  0  0  0  0  0  0  0  0999 V2000
   -4.5971  -12.4808   13.3208 N   0  0  0  0  0  0  0  0  0  0  0  0
   -5.8414  -12.2095   12.7647 C   0  0  0  0  0  0  0  0  0  0  0  0
   -6.1146  -10.9331   12.2733 C   0  0  0  0  0  0  0  0  0  0  0  0
   -7.3546  -10.6716   11.7218 C   0  0  0  0  0  0  0  0  0  0  0  0
   -8.2915  -11.6950   11.6767 C   0  0  0  0  0  0  0  0  0  0  0  0
   -7.9554  -12.9464   12.1850 C   0  0  0  0  0  0  0  0  0  0  0  0
   -6.7518  -13.1648   12.7032 N   0  0  0  0  0  0  0  0  0  0  0  0
   -8.9465  -14.0453   12.1428 C   0  0  0  0  0  0  0  0  0  0  0  0
  -10.1337  -13.7920   12.1002 O   0  0  0  0  0  0  0  0  0  0  0  0
   -8.5318  -15.3282   12.1508 N   0  0  0  0  0  0  0  0  0  0  0  0
   -9.4645  -16.3627   12.1106 C   0  0  0  0  0  0  0  0  0  0  0  0
  -10.6991  -16.3243   12.5400 N   0  0  0  0  0  0  0  0  0  0  0  0
  -11.2614  -17.3803   12.3670 O   0  0  0  0  0  0  0  0  0  0  0  0
  -10.4566  -18.2821   11.7855 C   0  0  0  0  0  0  0  0  0  0  0  0
   -9.2671  -17.6691   11.5895 C   0  0  0  0  0  0  0  0  0  0  0  0
  -10.8103  -19.7005   11.4189 C   0  0  0  0  0  0  0  0  0  0  0  0
   -9.5806  -20.3996   10.8370 C   0  0  0  0  0  0  0  0  0  0  0  0
  -11.2790  -20.4483   12.6688 C   0  0  0  0  0  0  0  0  0  0  0  0
  -11.9324  -19.6929   10.3785 C   0  0  0  0  0  0  0  0  0  0  0  0
  1  2  1  0
  2  3  2  0
  2  7  1  0
  3  4  1  0
  4  5  2  0
  5  6  1  0
  6  7  2  0
  6  8  1  0
  8  9  2  0
  8 10  1  0
 10 11  1  0
 11 12  2  0
 11 15  1  0
 12 13  1  0
 13 14  1  0
 14 15  2  0
 14 16  1  0
 16 17  1  0
 16 18  1  0
 16 19  1  0
M  END
>  <Gold.Gold.Protein.RotatedWaterAtoms>  (757) 


>  <Gold.Id.Protein>  (757) 


>  <Gold.PLP.Chemscore.CHOScore>  (757) 
0.0000

>  <Gold.PLP.Chemscore.Hbond>  (757) 
3.0602

>  <Gold.PLP.Chemscore.Internal.Correction>  (757) 
0.0007

>  <Gold.PLP.Chemscore.Metal>  (757) 
0.0000

>  <Gold.PLP.Fitness>  (757) 
59.9006

>  <Gold.PLP.PLP>  (757) 
-51.5835

>  <Gold.PLP.ligand.clash>  (757) 
0.0000

>  <Gold.PLP.ligand.torsion>  (757) 
0.4321

>  <Gold.PLP.part.buried>  (757) 
-5.1964

>  <Gold.PLP.part.hbond>  (757) 
-7.8052

>  <Gold.PLP.part.metal>  (757) 
0.0000

>  <Gold.PLP.part.nonpolar>  (757) 
-39.7371

>  <Gold.PLP.part.repulsive>  (757) 
0.6762

>  <Gold.Protein.RotatedAtoms>  (757) 


>  <Gold.Protein.RotatedTorsions>  (757) 


>  <Gold.Protein.RotatedWaterAtoms>  (757) 


>  <Gold.Version>  (757) 
5.3.0

>  <PLP.Chemscore.CHOScore>  (757) 


>  <PLP.Chemscore.Hbond>  (757) 


>  <PLP.Chemscore.Internal.Correction>  (757) 


>  <PLP.Chemscore.Metal>  (757) 


>  <PLP.Fitness>  (757) 


>  <PLP.PLP>  (757) 


>  <PLP.ligand.clash>  (757) 


>  <PLP.ligand.torsion>  (757) 


>  <PLP.part.buried>  (757) 


>  <PLP.part.hbond>  (757) 


>  <PLP.part.metal>  (757) 


>  <PLP.part.nonpolar>  (757) 


>  <PLP.part.repulsive>  (757) 


>  <Version>  (757) 


$$$$
3757|Compound_967|Compounds_3D_F|sdf|309|dock10|1
     RDKit          3D

 26 27  0  0  0  0  0  0  0  0999 V2000
   -4.3252  -11.9419   12.9784 N   0  0  0  0  0  0  0  0  0  0  0  0
   -5.6299  -11.9237   12.5004 C   0  0  0  0  0  0  0  0  0  0  0  0
   -6.3127  -10.7113   12.4030 C   0  0  0  0  0  0  0  0  0  0  0  0
   -7.6100  -10.7020   11.9265 C   0  0  0  0  0  0  0  0  0  0  0  0
   -8.1927  -11.9077   11.5607 C   0  0  0  0  0  0  0  0  0  0  0  0
   -7.4566  -13.0826   11.6829 C   0  0  0  0  0  0  0  0  0  0  0  0
   -6.2094  -13.0547   12.1395 N   0  0  0  0  0  0  0  0  0  0  0  0
   -8.0674  -14.3743   11.2953 C   0  0  0  0  0  0  0  0  0  0  0  0
   -9.0976  -14.3905   10.6506 O   0  0  0  0  0  0  0  0  0  0  0  0
   -7.4812  -15.5332   11.6577 N   0  0  0  0  0  0  0  0  0  0  0  0
   -8.0571  -16.7508   11.2929 C   0  0  0  0  0  0  0  0  0  0  0  0
   -9.3711  -16.8395   11.1641 N   0  0  0  0  0  0  0  0  0  0  0  0
   -9.9608  -17.9736   10.8188 C   0  0  0  0  0  0  0  0  0  0  0  0
  -11.3508  -18.0199   10.6955 N   0  0  0  0  0  0  0  0  0  0  0  0
  -12.1040  -18.4517   11.7266 C   0  0  0  0  0  0  0  0  0  0  0  0
  -11.5753  -18.8006   12.7601 O   0  0  0  0  0  0  0  0  0  0  0  0
  -13.6050  -18.5017   11.5946 C   0  0  0  0  0  0  0  0  0  0  0  0
   -9.2086  -19.1234   10.5784 C   0  0  0  0  0  0  0  0  0  0  0  0
  -10.0024  -20.6282   10.1191 S   0  0  0  0  0  0  0  0  0  0  0  0
   -9.4657  -20.7535    8.3949 C   0  0  0  0  0  0  0  0  0  0  0  0
   -9.1284  -20.8318    7.3130 N   0  0  0  0  0  0  0  0  0  0  0  0
   -7.8250  -19.0676   10.7038 C   0  0  0  0  0  0  0  0  0  0  0  0
   -7.2402  -17.8583   11.0620 C   0  0  0  0  0  0  0  0  0  0  0  0
   -5.4916  -17.7290   11.2363 S   0  0  0  0  0  0  0  0  0  0  0  0
   -4.9688  -18.3212    9.6075 C   0  0  0  0  0  0  0  0  0  0  0  0
   -4.6406  -18.6926    8.5856 N   0  0  0  0  0  0  0  0  0  0  0  0
  1  2  1  0
  2  3  2  0
  2  7  1  0
  3  4  1  0
  4  5  2  0
  5  6  1  0
  6  7  2  0
  6  8  1  0
  8  9  2  0
  8 10  1  0
 10 11  1  0
 11 12  2  0
 11 23  1  0
 12 13  1  0
 13 14  1  0
 13 18  2  0
 14 15  1  0
 15 16  2  0
 15 17  1  0
 18 19  1  0
 18 22  1  0
 19 20  1  0
 20 21  3  0
 22 23  2  0
 23 24  1  0
 24 25  1  0
 25 26  3  0
M  END
>  <Gold.Gold.Protein.RotatedWaterAtoms>  (758) 


>  <Gold.Id.Protein>  (758) 


>  <Gold.PLP.Chemscore.CHOScore>  (758) 
0.0000

>  <Gold.PLP.Chemscore.Hbond>  (758) 
2.9075

>  <Gold.PLP.Chemscore.Internal.Correction>  (758) 
0.8035

>  <Gold.PLP.Chemscore.Metal>  (758) 
0.0000

>  <Gold.PLP.Fitness>  (758) 
65.8323

>  <Gold.PLP.PLP>  (758) 
-58.5851

>  <Gold.PLP.ligand.clash>  (758) 
0.0000

>  <Gold.PLP.ligand.torsion>  (758) 
1.1393

>  <Gold.PLP.part.buried>  (758) 
-10.9846

>  <Gold.PLP.part.hbond>  (758) 
-7.0821

>  <Gold.PLP.part.metal>  (758) 
0.0000

>  <Gold.PLP.part.nonpolar>  (758) 
-41.8638

>  <Gold.PLP.part.repulsive>  (758) 
1.6186

>  <Gold.Protein.RotatedAtoms>  (758) 


>  <Gold.Protein.RotatedTorsions>  (758) 


>  <Gold.Protein.RotatedWaterAtoms>  (758) 


>  <Gold.Version>  (758) 
5.3.0

>  <PLP.Chemscore.CHOScore>  (758) 


>  <PLP.Chemscore.Hbond>  (758) 


>  <PLP.Chemscore.Internal.Correction>  (758) 


>  <PLP.Chemscore.Metal>  (758) 


>  <PLP.Fitness>  (758) 


>  <PLP.PLP>  (758) 


>  <PLP.ligand.clash>  (758) 


>  <PLP.ligand.torsion>  (758) 


>  <PLP.part.buried>  (758) 


>  <PLP.part.hbond>  (758) 


>  <PLP.part.metal>  (758) 


>  <PLP.part.nonpolar>  (758) 


>  <PLP.part.repulsive>  (758) 


>  <Version>  (758) 


$$$$
3758|Compound_978|Compounds_3D_F|sdf|314|dock10|1
     RDKit          3D

 21 22  0  0  0  0  0  0  0  0999 V2000
   -6.2188  -18.4276   10.5440 O   0  0  0  0  0  0  0  0  0  0  0  0
   -7.0537  -19.4258   10.1957 C   0  0  0  0  0  0  0  0  0  0  0  0
   -6.6391  -20.3658    9.5479 O   0  0  0  0  0  0  0  0  0  0  0  0
   -8.4747  -19.3780   10.6028 C   0  0  0  0  0  0  0  0  0  0  0  0
   -9.2984  -20.3885   10.3128 N   0  0  0  0  0  0  0  0  0  0  0  0
  -10.5663  -20.3531   10.6726 C   0  0  0  0  0  0  0  0  0  0  0  0
  -11.3676  -21.4001   10.3588 O   0  0  0  0  0  0  0  0  0  0  0  0
  -11.0821  -19.3260   11.3333 N   0  0  0  0  0  0  0  0  0  0  0  0
  -10.3363  -18.2827   11.6611 C   0  0  0  0  0  0  0  0  0  0  0  0
  -10.8735  -17.2382   12.3362 O   0  0  0  0  0  0  0  0  0  0  0  0
   -8.9774  -18.2770   11.3025 C   0  0  0  0  0  0  0  0  0  0  0  0
   -8.1556  -17.1991   11.6277 N   0  0  0  0  0  0  0  0  0  0  0  0
   -8.4271  -15.9729   11.1384 C   0  0  0  0  0  0  0  0  0  0  0  0
   -9.3565  -15.8168   10.3696 O   0  0  0  0  0  0  0  0  0  0  0  0
   -7.5943  -14.8190   11.5345 C   0  0  0  0  0  0  0  0  0  0  0  0
   -6.2710  -14.9360   11.5845 N   0  0  0  0  0  0  0  0  0  0  0  0
   -5.5314  -13.9036   11.9378 C   0  0  0  0  0  0  0  0  0  0  0  0
   -6.1260  -12.6920   12.2595 C   0  0  0  0  0  0  0  0  0  0  0  0
   -7.4398  -12.5613   12.2142 N   0  0  0  0  0  0  0  0  0  0  0  0
   -8.1973  -13.5916   11.8554 C   0  0  0  0  0  0  0  0  0  0  0  0
   -9.5726  -13.4580   11.8066 N   0  0  0  0  0  0  0  0  0  0  0  0
  1  2  1  0
  2  3  2  0
  2  4  1  0
  4  5  2  0
  4 11  1  0
  5  6  1  0
  6  7  1  0
  6  8  2  0
  8  9  1  0
  9 10  1  0
  9 11  2  0
 11 12  1  0
 12 13  1  0
 13 14  2  0
 13 15  1  0
 15 16  2  0
 15 20  1  0
 16 17  1  0
 17 18  2  0
 18 19  1  0
 19 20  2  0
 20 21  1  0
M  END
>  <Gold.Gold.Protein.RotatedWaterAtoms>  (759) 


>  <Gold.Id.Protein>  (759) 


>  <Gold.PLP.Chemscore.CHOScore>  (759) 
1.7297

>  <Gold.PLP.Chemscore.Hbond>  (759) 
3.0000

>  <Gold.PLP.Chemscore.Internal.Correction>  (759) 
1.1604

>  <Gold.PLP.Chemscore.Metal>  (759) 
0.0000

>  <Gold.PLP.Fitness>  (759) 
48.5902

>  <Gold.PLP.PLP>  (759) 
-35.8121

>  <Gold.PLP.ligand.clash>  (759) 
0.0000

>  <Gold.PLP.ligand.torsion>  (759) 
1.2856

>  <Gold.PLP.part.buried>  (759) 
-8.5648

>  <Gold.PLP.part.hbond>  (759) 
-4.0000

>  <Gold.PLP.part.metal>  (759) 
0.0000

>  <Gold.PLP.part.nonpolar>  (759) 
-23.7072

>  <Gold.PLP.part.repulsive>  (759) 
0.4836

>  <Gold.Protein.RotatedAtoms>  (759) 


>  <Gold.Protein.RotatedTorsions>  (759) 


>  <Gold.Protein.RotatedWaterAtoms>  (759) 


>  <Gold.Version>  (759) 
5.3.0

>  <PLP.Chemscore.CHOScore>  (759) 


>  <PLP.Chemscore.Hbond>  (759) 


>  <PLP.Chemscore.Internal.Correction>  (759) 


>  <PLP.Chemscore.Metal>  (759) 


>  <PLP.Fitness>  (759) 


>  <PLP.PLP>  (759) 


>  <PLP.ligand.clash>  (759) 


>  <PLP.ligand.torsion>  (759) 


>  <PLP.part.buried>  (759) 


>  <PLP.part.hbond>  (759) 


>  <PLP.part.metal>  (759) 


>  <PLP.part.nonpolar>  (759) 


>  <PLP.part.repulsive>  (759) 


>  <Version>  (759) 


$$$$
3759|Compound_981|Compounds_3D_F|sdf|315|dock10|1
     RDKit          3D

 20 21  0  0  0  0  0  0  0  0999 V2000
   -5.9853  -13.5198   13.0090 N   0  0  0  0  0  0  0  0  0  0  0  0
   -6.6273  -12.3902   12.5366 C   0  0  0  0  0  0  0  0  0  0  0  0
   -6.0466  -11.2007   12.6384 N   0  0  0  0  0  0  0  0  0  0  0  0
   -6.6630  -10.1242   12.1849 C   0  0  0  0  0  0  0  0  0  0  0  0
   -7.9175  -10.2281   11.6012 C   0  0  0  0  0  0  0  0  0  0  0  0
   -8.5054  -11.4025   11.4932 N   0  0  0  0  0  0  0  0  0  0  0  0
   -7.8945  -12.4962   11.9400 C   0  0  0  0  0  0  0  0  0  0  0  0
   -8.5514  -13.8133   11.8205 C   0  0  0  0  0  0  0  0  0  0  0  0
   -9.7606  -13.8997   11.9137 O   0  0  0  0  0  0  0  0  0  0  0  0
   -7.8121  -14.9192   11.6090 N   0  0  0  0  0  0  0  0  0  0  0  0
   -8.4257  -16.1482   11.4969 C   0  0  0  0  0  0  0  0  0  0  0  0
   -7.8255  -17.3032   11.2893 N   0  0  0  0  0  0  0  0  0  0  0  0
   -8.7067  -18.2399   11.2394 N   0  0  0  0  0  0  0  0  0  0  0  0
   -9.9014  -17.7213   11.4129 C   0  0  0  0  0  0  0  0  0  0  0  0
   -9.7438  -16.3887   11.5843 O   0  0  0  0  0  0  0  0  0  0  0  0
  -11.1743  -18.4550   11.4245 C   0  0  0  0  0  0  0  0  0  0  0  0
  -11.8565  -18.4722   12.4308 O   0  0  0  0  0  0  0  0  0  0  0  0
  -11.5855  -19.1087   10.3191 O   0  0  0  0  0  0  0  0  0  0  0  0
  -13.0185  -19.2324   10.1214 C   0  0  0  0  0  0  0  0  0  0  0  0
  -13.5059  -18.1083    9.2061 C   0  0  0  0  0  0  0  0  0  0  0  0
  1  2  1  0
  2  3  2  0
  2  7  1  0
  3  4  1  0
  4  5  2  0
  5  6  1  0
  6  7  2  0
  7  8  1  0
  8  9  2  0
  8 10  1  0
 10 11  1  0
 11 12  2  0
 11 15  1  0
 12 13  1  0
 13 14  2  0
 14 15  1  0
 14 16  1  0
 16 17  2  0
 16 18  1  0
 18 19  1  0
 19 20  1  0
M  END
>  <Gold.Gold.Protein.RotatedWaterAtoms>  (760) 


>  <Gold.Id.Protein>  (760) 


>  <Gold.PLP.Chemscore.CHOScore>  (760) 
1.2373

>  <Gold.PLP.Chemscore.Hbond>  (760) 
2.0000

>  <Gold.PLP.Chemscore.Internal.Correction>  (760) 
0.0192

>  <Gold.PLP.Chemscore.Metal>  (760) 
0.0000

>  <Gold.PLP.Fitness>  (760) 
53.6254

>  <Gold.PLP.PLP>  (760) 
-48.4333

>  <Gold.PLP.ligand.clash>  (760) 
0.0000

>  <Gold.PLP.ligand.torsion>  (760) 
2.2695

>  <Gold.PLP.part.buried>  (760) 
-10.9586

>  <Gold.PLP.part.hbond>  (760) 
-3.5986

>  <Gold.PLP.part.metal>  (760) 
0.0000

>  <Gold.PLP.part.nonpolar>  (760) 
-35.7694

>  <Gold.PLP.part.repulsive>  (760) 
0.8748

>  <Gold.Protein.RotatedAtoms>  (760) 


>  <Gold.Protein.RotatedTorsions>  (760) 


>  <Gold.Protein.RotatedWaterAtoms>  (760) 


>  <Gold.Version>  (760) 
5.3.0

>  <PLP.Chemscore.CHOScore>  (760) 


>  <PLP.Chemscore.Hbond>  (760) 


>  <PLP.Chemscore.Internal.Correction>  (760) 


>  <PLP.Chemscore.Metal>  (760) 


>  <PLP.Fitness>  (760) 


>  <PLP.PLP>  (760) 


>  <PLP.ligand.clash>  (760) 


>  <PLP.ligand.torsion>  (760) 


>  <PLP.part.buried>  (760) 


>  <PLP.part.hbond>  (760) 


>  <PLP.part.metal>  (760) 


>  <PLP.part.nonpolar>  (760) 


>  <PLP.part.repulsive>  (760) 


>  <Version>  (760) 


$$$$
3760|Compound_984|Compounds_3D_F|sdf|318|dock10|1
     RDKit          3D

 35 39  0  0  0  0  0  0  0  0999 V2000
  -13.5827  -19.1767   12.6035 N   0  0  0  0  0  0  0  0  0  0  0  0
  -13.7617  -19.3773   11.2476 C   0  0  0  0  0  0  0  0  0  0  0  0
  -14.8665  -19.9612   10.7988 N   0  0  0  0  0  0  0  0  0  0  0  0
  -15.0339  -20.1510    9.5023 C   0  0  0  0  0  0  0  0  0  0  0  0
  -14.0599  -19.7422    8.6031 C   0  0  0  0  0  0  0  0  0  0  0  0
  -12.9588  -19.1612    9.0332 N   0  0  0  0  0  0  0  0  0  0  0  0
  -12.7786  -18.9582   10.3350 C   0  0  0  0  0  0  0  0  0  0  0  0
  -11.5452  -18.3067   10.8212 C   0  0  0  0  0  0  0  0  0  0  0  0
  -11.4599  -17.9571   11.9821 O   0  0  0  0  0  0  0  0  0  0  0  0
  -10.5144  -18.1009    9.9780 N   0  0  0  0  0  0  0  0  0  0  0  0
   -9.3573  -17.4899   10.4339 C   0  0  0  0  0  0  0  0  0  0  0  0
   -9.2364  -16.2313   10.7876 N   0  0  0  0  0  0  0  0  0  0  0  0
   -7.9755  -15.9897   11.1752 C   0  0  0  0  0  0  0  0  0  0  0  0
   -7.2749  -17.0954   11.0727 N   0  0  0  0  0  0  0  0  0  0  0  0
   -8.1462  -18.0895   10.5983 N   0  0  0  0  0  0  0  0  0  0  0  0
   -7.8333  -19.4198   10.3413 C   0  0  0  0  0  0  0  0  0  0  0  0
   -8.7760  -20.3501   10.3278 N   0  0  0  0  0  0  0  0  0  0  0  0
   -8.4914  -21.6200   10.0847 C   0  0  0  0  0  0  0  0  0  0  0  0
   -7.2735  -22.0449    9.8424 N   0  0  0  0  0  0  0  0  0  0  0  0
   -6.2439  -21.1847    9.8324 C   0  0  0  0  0  0  0  0  0  0  0  0
   -6.5009  -19.8128   10.0824 C   0  0  0  0  0  0  0  0  0  0  0  0
   -5.4431  -18.8947   10.0769 C   0  0  0  0  0  0  0  0  0  0  0  0
   -4.1728  -19.3326    9.8309 C   0  0  0  0  0  0  0  0  0  0  0  0
   -3.1444  -18.4432    9.8245 O   0  0  0  0  0  0  0  0  0  0  0  0
   -3.2714  -17.2982   10.6701 C   0  0  0  0  0  0  0  0  0  0  0  0
   -3.9175  -20.6897    9.5833 C   0  0  0  0  0  0  0  0  0  0  0  0
   -2.6447  -21.0990    9.3411 O   0  0  0  0  0  0  0  0  0  0  0  0
   -2.3071  -22.4313    9.7317 C   0  0  0  0  0  0  0  0  0  0  0  0
   -4.9321  -21.6050    9.5775 C   0  0  0  0  0  0  0  0  0  0  0  0
   -7.4557  -14.6814   11.6453 C   0  0  0  0  0  0  0  0  0  0  0  0
   -8.2102  -13.5965   11.5348 N   0  0  0  0  0  0  0  0  0  0  0  0
   -7.7860  -12.4160   11.9399 C   0  0  0  0  0  0  0  0  0  0  0  0
   -6.5306  -12.2670   12.5000 C   0  0  0  0  0  0  0  0  0  0  0  0
   -5.7096  -13.3770   12.6349 C   0  0  0  0  0  0  0  0  0  0  0  0
   -6.1819  -14.6048   12.2056 C   0  0  0  0  0  0  0  0  0  0  0  0
  1  2  1  0
  2  3  2  0
  2  7  1  0
  3  4  1  0
  4  5  2  0
  5  6  1  0
  6  7  2  0
  7  8  1  0
  8  9  2  0
  8 10  1  0
 10 11  1  0
 11 12  2  0
 11 15  1  0
 12 13  1  0
 13 14  2  0
 13 30  1  0
 14 15  1  0
 15 16  1  0
 16 17  2  0
 16 21  1  0
 17 18  1  0
 18 19  2  0
 19 20  1  0
 20 21  2  0
 20 29  1  0
 21 22  1  0
 22 23  2  0
 23 24  1  0
 23 26  1  0
 24 25  1  0
 26 27  1  0
 26 29  2  0
 27 28  1  0
 30 31  2  0
 30 35  1  0
 31 32  1  0
 32 33  2  0
 33 34  1  0
 34 35  2  0
M  END
>  <Gold.Gold.Protein.RotatedWaterAtoms>  (761) 


>  <Gold.Id.Protein>  (761) 


>  <Gold.PLP.Chemscore.CHOScore>  (761) 
2.0000

>  <Gold.PLP.Chemscore.Hbond>  (761) 
1.3683

>  <Gold.PLP.Chemscore.Internal.Correction>  (761) 
1.9375

>  <Gold.PLP.Chemscore.Metal>  (761) 
0.0000

>  <Gold.PLP.Fitness>  (761) 
67.8318

>  <Gold.PLP.PLP>  (761) 
-59.2330

>  <Gold.PLP.ligand.clash>  (761) 
0.0000

>  <Gold.PLP.ligand.torsion>  (761) 
1.7217

>  <Gold.PLP.part.buried>  (761) 
-9.8455

>  <Gold.PLP.part.hbond>  (761) 
-3.5406

>  <Gold.PLP.part.metal>  (761) 
0.0000

>  <Gold.PLP.part.nonpolar>  (761) 
-46.9630

>  <Gold.PLP.part.repulsive>  (761) 
1.1276

>  <Gold.Protein.RotatedAtoms>  (761) 


>  <Gold.Protein.RotatedTorsions>  (761) 


>  <Gold.Protein.RotatedWaterAtoms>  (761) 


>  <Gold.Version>  (761) 
5.3.0

>  <PLP.Chemscore.CHOScore>  (761) 


>  <PLP.Chemscore.Hbond>  (761) 


>  <PLP.Chemscore.Internal.Correction>  (761) 


>  <PLP.Chemscore.Metal>  (761) 


>  <PLP.Fitness>  (761) 


>  <PLP.PLP>  (761) 


>  <PLP.ligand.clash>  (761) 


>  <PLP.ligand.torsion>  (761) 


>  <PLP.part.buried>  (761) 


>  <PLP.part.hbond>  (761) 


>  <PLP.part.metal>  (761) 


>  <PLP.part.nonpolar>  (761) 


>  <PLP.part.repulsive>  (761) 


>  <Version>  (761) 


$$$$
3761|Compound_986|Compounds_3D_F|sdf|319|dock10|1
     RDKit          3D

 18 19  0  0  0  0  0  0  0  0999 V2000
  -13.9439  -18.8809   12.8819 O   0  0  0  0  0  0  0  0  0  0  0  0
  -12.9536  -19.5224   12.2293 C   0  0  0  0  0  0  0  0  0  0  0  0
  -13.0845  -20.6907   11.9247 O   0  0  0  0  0  0  0  0  0  0  0  0
  -11.7101  -18.8046   11.8866 C   0  0  0  0  0  0  0  0  0  0  0  0
  -11.3852  -17.5864   12.2733 N   0  0  0  0  0  0  0  0  0  0  0  0
  -10.1959  -17.2596   11.7794 C   0  0  0  0  0  0  0  0  0  0  0  0
   -9.7341  -18.2646   11.0658 N   0  0  0  0  0  0  0  0  0  0  0  0
  -10.7000  -19.2836   11.1239 N   0  0  0  0  0  0  0  0  0  0  0  0
   -9.5387  -16.0432   11.9858 N   0  0  0  0  0  0  0  0  0  0  0  0
   -8.1950  -15.9800   11.8979 C   0  0  0  0  0  0  0  0  0  0  0  0
   -7.5554  -16.9804   11.6406 O   0  0  0  0  0  0  0  0  0  0  0  0
   -7.5008  -14.6942   12.1156 C   0  0  0  0  0  0  0  0  0  0  0  0
   -6.2247  -14.6791   12.4884 N   0  0  0  0  0  0  0  0  0  0  0  0
   -5.6087  -13.5306   12.6821 C   0  0  0  0  0  0  0  0  0  0  0  0
   -6.2848  -12.3326   12.4988 C   0  0  0  0  0  0  0  0  0  0  0  0
   -7.5517  -12.3325   12.1279 N   0  0  0  0  0  0  0  0  0  0  0  0
   -8.1840  -13.4818   11.9243 C   0  0  0  0  0  0  0  0  0  0  0  0
   -9.5116  -13.4860   11.5364 N   0  0  0  0  0  0  0  0  0  0  0  0
  1  2  1  0
  2  3  2  0
  2  4  1  0
  4  5  2  0
  4  8  1  0
  5  6  1  0
  6  7  2  0
  6  9  1  0
  7  8  1  0
  9 10  1  0
 10 11  2  0
 10 12  1  0
 12 13  2  0
 12 17  1  0
 13 14  1  0
 14 15  2  0
 15 16  1  0
 16 17  2  0
 17 18  1  0
M  END
>  <Gold.Gold.Protein.RotatedWaterAtoms>  (762) 


>  <Gold.Id.Protein>  (762) 


>  <Gold.PLP.Chemscore.CHOScore>  (762) 
1.0000

>  <Gold.PLP.Chemscore.Hbond>  (762) 
2.5157

>  <Gold.PLP.Chemscore.Internal.Correction>  (762) 
0.0009

>  <Gold.PLP.Chemscore.Metal>  (762) 
0.0000

>  <Gold.PLP.Fitness>  (762) 
47.1829

>  <Gold.PLP.PLP>  (762) 
-37.4279

>  <Gold.PLP.ligand.clash>  (762) 
0.0000

>  <Gold.PLP.ligand.torsion>  (762) 
0.3965

>  <Gold.PLP.part.buried>  (762) 
-8.1461

>  <Gold.PLP.part.hbond>  (762) 
-4.7943

>  <Gold.PLP.part.metal>  (762) 
0.0000

>  <Gold.PLP.part.nonpolar>  (762) 
-24.6759

>  <Gold.PLP.part.repulsive>  (762) 
0.7200

>  <Gold.Protein.RotatedAtoms>  (762) 


>  <Gold.Protein.RotatedTorsions>  (762) 


>  <Gold.Protein.RotatedWaterAtoms>  (762) 


>  <Gold.Version>  (762) 
5.3.0

>  <PLP.Chemscore.CHOScore>  (762) 


>  <PLP.Chemscore.Hbond>  (762) 


>  <PLP.Chemscore.Internal.Correction>  (762) 


>  <PLP.Chemscore.Metal>  (762) 


>  <PLP.Fitness>  (762) 


>  <PLP.PLP>  (762) 


>  <PLP.ligand.clash>  (762) 


>  <PLP.ligand.torsion>  (762) 


>  <PLP.part.buried>  (762) 


>  <PLP.part.hbond>  (762) 


>  <PLP.part.metal>  (762) 


>  <PLP.part.nonpolar>  (762) 


>  <PLP.part.repulsive>  (762) 


>  <Version>  (762) 


$$$$
3762|Compound_988|Compounds_3D_F|sdf|321|dock10|1
     RDKit          3D

 19 21  0  0  0  0  0  0  0  0999 V2000
   -9.5638  -13.8563   11.6939 N   0  0  0  0  0  0  0  0  0  0  0  0
   -8.2100  -13.8200   11.9717 C   0  0  0  0  0  0  0  0  0  0  0  0
   -7.6135  -12.6634   12.2349 N   0  0  0  0  0  0  0  0  0  0  0  0
   -6.3201  -12.6332   12.5007 C   0  0  0  0  0  0  0  0  0  0  0  0
   -5.5778  -13.8056   12.5066 C   0  0  0  0  0  0  0  0  0  0  0  0
   -6.1571  -14.9605   12.2476 N   0  0  0  0  0  0  0  0  0  0  0  0
   -7.4599  -15.0074   11.9838 C   0  0  0  0  0  0  0  0  0  0  0  0
   -8.1120  -16.3009   11.6926 C   0  0  0  0  0  0  0  0  0  0  0  0
   -7.4359  -17.2910   11.4965 O   0  0  0  0  0  0  0  0  0  0  0  0
   -9.4566  -16.3818   11.6443 N   0  0  0  0  0  0  0  0  0  0  0  0
  -10.0683  -17.5963   11.3701 C   0  0  0  0  0  0  0  0  0  0  0  0
  -10.9302  -18.1331   12.2277 N   0  0  0  0  0  0  0  0  0  0  0  0
  -11.5185  -19.2892   11.9748 C   0  0  0  0  0  0  0  0  0  0  0  0
  -11.2927  -19.9721   10.8744 N   0  0  0  0  0  0  0  0  0  0  0  0
  -10.4424  -19.5119    9.9541 C   0  0  0  0  0  0  0  0  0  0  0  0
   -9.7987  -18.2814   10.1815 C   0  0  0  0  0  0  0  0  0  0  0  0
   -9.0045  -18.0779    9.0849 N   0  0  0  0  0  0  0  0  0  0  0  0
   -9.1581  -19.0802    8.2882 N   0  0  0  0  0  0  0  0  0  0  0  0
   -9.9950  -19.9376    8.7605 N   0  0  0  0  0  0  0  0  0  0  0  0
  1  2  1  0
  2  3  2  0
  2  7  1  0
  3  4  1  0
  4  5  2  0
  5  6  1  0
  6  7  2  0
  7  8  1  0
  8  9  2  0
  8 10  1  0
 10 11  1  0
 11 12  2  0
 11 16  1  0
 12 13  1  0
 13 14  2  0
 14 15  1  0
 15 16  2  0
 15 19  1  0
 16 17  1  0
 17 18  1  0
 18 19  2  0
M  END
>  <Gold.Gold.Protein.RotatedWaterAtoms>  (763) 


>  <Gold.Id.Protein>  (763) 


>  <Gold.PLP.Chemscore.CHOScore>  (763) 
1.0000

>  <Gold.PLP.Chemscore.Hbond>  (763) 
2.4831

>  <Gold.PLP.Chemscore.Internal.Correction>  (763) 
0.3002

>  <Gold.PLP.Chemscore.Metal>  (763) 
0.0000

>  <Gold.PLP.Fitness>  (763) 
46.1336

>  <Gold.PLP.PLP>  (763) 
-36.5862

>  <Gold.PLP.ligand.clash>  (763) 
0.0000

>  <Gold.PLP.ligand.torsion>  (763) 
0.6009

>  <Gold.PLP.part.buried>  (763) 
-8.0033

>  <Gold.PLP.part.hbond>  (763) 
-5.0286

>  <Gold.PLP.part.metal>  (763) 
0.0000

>  <Gold.PLP.part.nonpolar>  (763) 
-23.5752

>  <Gold.PLP.part.repulsive>  (763) 
0.5833

>  <Gold.Protein.RotatedAtoms>  (763) 


>  <Gold.Protein.RotatedTorsions>  (763) 


>  <Gold.Protein.RotatedWaterAtoms>  (763) 


>  <Gold.Version>  (763) 
5.3.0

>  <PLP.Chemscore.CHOScore>  (763) 


>  <PLP.Chemscore.Hbond>  (763) 


>  <PLP.Chemscore.Internal.Correction>  (763) 


>  <PLP.Chemscore.Metal>  (763) 


>  <PLP.Fitness>  (763) 


>  <PLP.PLP>  (763) 


>  <PLP.ligand.clash>  (763) 


>  <PLP.ligand.torsion>  (763) 


>  <PLP.part.buried>  (763) 


>  <PLP.part.hbond>  (763) 


>  <PLP.part.metal>  (763) 


>  <PLP.part.nonpolar>  (763) 


>  <PLP.part.repulsive>  (763) 


>  <Version>  (763) 


$$$$
3763|Compound_1017|Compounds_3D_F|sdf|330|dock10|1
     RDKit          3D

 29 32  0  0  0  0  0  0  0  0999 V2000
   -9.9927  -21.1592    7.6171 O   0  0  0  0  0  0  0  0  0  0  0  0
   -9.7007  -20.5220    8.7766 C   0  0  0  0  0  0  0  0  0  0  0  0
  -10.1242  -21.0031    9.9378 N   0  0  0  0  0  0  0  0  0  0  0  0
   -9.8432  -20.3874   11.0790 C   0  0  0  0  0  0  0  0  0  0  0  0
   -9.1348  -19.2712   11.1237 N   0  0  0  0  0  0  0  0  0  0  0  0
   -8.6724  -18.7209   10.0063 C   0  0  0  0  0  0  0  0  0  0  0  0
   -8.9407  -19.3421    8.7750 C   0  0  0  0  0  0  0  0  0  0  0  0
   -8.3623  -18.5847    7.8113 N   0  0  0  0  0  0  0  0  0  0  0  0
   -7.7704  -17.5639    8.3593 C   0  0  0  0  0  0  0  0  0  0  0  0
   -7.9303  -17.6045    9.7133 N   0  0  0  0  0  0  0  0  0  0  0  0
   -7.4111  -16.6317   10.6770 C   0  0  0  0  0  0  0  0  0  0  0  0
   -8.4969  -15.9116   11.3000 O   0  0  0  0  0  0  0  0  0  0  0  0
   -7.9045  -14.6996   11.8157 C   0  0  0  0  0  0  0  0  0  0  0  0
   -8.9803  -13.6340   12.0392 C   0  0  0  0  0  0  0  0  0  0  0  0
  -10.0073  -14.1627   12.8798 O   0  0  0  0  0  0  0  0  0  0  0  0
   -6.9149  -14.2471   10.7192 C   0  0  0  0  0  0  0  0  0  0  0  0
   -5.7358  -13.6940   11.3079 O   0  0  0  0  0  0  0  0  0  0  0  0
   -6.5803  -15.5482    9.9534 C   0  0  0  0  0  0  0  0  0  0  0  0
   -5.1837  -15.8389   10.0461 O   0  0  0  0  0  0  0  0  0  0  0  0
  -10.3093  -20.9337   12.2680 N   0  0  0  0  0  0  0  0  0  0  0  0
  -11.6136  -20.8300   12.5925 C   0  0  0  0  0  0  0  0  0  0  0  0
  -12.3820  -20.2602   11.8427 O   0  0  0  0  0  0  0  0  0  0  0  0
  -12.1089  -21.4111   13.8576 C   0  0  0  0  0  0  0  0  0  0  0  0
  -11.3019  -22.2670   14.6086 C   0  0  0  0  0  0  0  0  0  0  0  0
  -11.7434  -22.7854   15.7367 N   0  0  0  0  0  0  0  0  0  0  0  0
  -10.8990  -23.6498   16.4740 O   0  0  0  0  0  0  0  0  0  0  0  0
  -12.9518  -22.5204   16.2000 C   0  0  0  0  0  0  0  0  0  0  0  0
  -13.8108  -21.6807   15.5138 C   0  0  0  0  0  0  0  0  0  0  0  0
  -13.3929  -21.1067   14.3260 C   0  0  0  0  0  0  0  0  0  0  0  0
  1  2  1  0
  2  3  2  0
  2  7  1  0
  3  4  1  0
  4  5  2  0
  4 20  1  0
  5  6  1  0
  6  7  2  0
  6 10  1  0
  7  8  1  0
  8  9  2  0
  9 10  1  0
 10 11  1  0
 11 12  1  0
 11 18  1  0
 12 13  1  0
 13 14  1  0
 13 16  1  0
 14 15  1  0
 16 17  1  0
 16 18  1  0
 18 19  1  0
 20 21  1  0
 21 22  2  0
 21 23  1  0
 23 24  2  0
 23 29  1  0
 24 25  1  0
 25 26  1  0
 25 27  2  0
 27 28  1  0
 28 29  2  0
M  CHG  2  25   1  26  -1
M  END
>  <Gold.Gold.Protein.RotatedWaterAtoms>  (764) 


>  <Gold.Id.Protein>  (764) 


>  <Gold.PLP.Chemscore.CHOScore>  (764) 
0.0000

>  <Gold.PLP.Chemscore.Hbond>  (764) 
5.7753

>  <Gold.PLP.Chemscore.Internal.Correction>  (764) 
0.4563

>  <Gold.PLP.Chemscore.Metal>  (764) 
0.0000

>  <Gold.PLP.Fitness>  (764) 
63.8154

>  <Gold.PLP.PLP>  (764) 
-47.7164

>  <Gold.PLP.ligand.clash>  (764) 
0.0000

>  <Gold.PLP.ligand.torsion>  (764) 
0.8415

>  <Gold.PLP.part.buried>  (764) 
-5.3193

>  <Gold.PLP.part.hbond>  (764) 
-9.0000

>  <Gold.PLP.part.metal>  (764) 
0.0000

>  <Gold.PLP.part.nonpolar>  (764) 
-33.5571

>  <Gold.PLP.part.repulsive>  (764) 
0.1372

>  <Gold.Protein.RotatedAtoms>  (764) 


>  <Gold.Protein.RotatedTorsions>  (764) 


>  <Gold.Protein.RotatedWaterAtoms>  (764) 


>  <Gold.Version>  (764) 
5.3.0

>  <PLP.Chemscore.CHOScore>  (764) 


>  <PLP.Chemscore.Hbond>  (764) 


>  <PLP.Chemscore.Internal.Correction>  (764) 


>  <PLP.Chemscore.Metal>  (764) 


>  <PLP.Fitness>  (764) 


>  <PLP.PLP>  (764) 


>  <PLP.ligand.clash>  (764) 


>  <PLP.ligand.torsion>  (764) 


>  <PLP.part.buried>  (764) 


>  <PLP.part.hbond>  (764) 


>  <PLP.part.metal>  (764) 


>  <PLP.part.nonpolar>  (764) 


>  <PLP.part.repulsive>  (764) 


>  <Version>  (764) 


$$$$
3764|Compound_1034|Compounds_3D_F|sdf|333|dock10|1
     RDKit          3D

 28 31  0  0  0  0  0  0  0  0999 V2000
   -7.6740  -14.5537   11.4451 N   0  0  0  0  0  0  0  0  0  0  0  0
   -8.5069  -13.5144   11.6518 C   0  0  0  0  0  0  0  0  0  0  0  0
   -9.7042  -13.7057   11.7505 O   0  0  0  0  0  0  0  0  0  0  0  0
   -7.9673  -12.1481   11.7581 C   0  0  0  0  0  0  0  0  0  0  0  0
   -8.5699  -11.0473   11.3610 N   0  0  0  0  0  0  0  0  0  0  0  0
   -7.7838  -10.0040   11.6164 C   0  0  0  0  0  0  0  0  0  0  0  0
   -6.6453  -10.4590   12.1945 C   0  0  0  0  0  0  0  0  0  0  0  0
   -6.7558  -11.8054   12.2913 N   0  0  0  0  0  0  0  0  0  0  0  0
   -5.7618  -12.7222   12.8543 C   0  0  0  0  0  0  0  0  0  0  0  0
   -8.1811  -15.8367   11.3387 C   0  0  0  0  0  0  0  0  0  0  0  0
   -7.5214  -16.8698   10.8789 N   0  0  0  0  0  0  0  0  0  0  0  0
   -8.3169  -17.9712   10.9152 C   0  0  0  0  0  0  0  0  0  0  0  0
   -9.5569  -17.5696   11.4386 C   0  0  0  0  0  0  0  0  0  0  0  0
   -9.4420  -16.2147   11.7029 N   0  0  0  0  0  0  0  0  0  0  0  0
  -10.5776  -18.4950   11.5934 C   0  0  0  0  0  0  0  0  0  0  0  0
  -10.3720  -19.8138   11.2306 C   0  0  0  0  0  0  0  0  0  0  0  0
  -11.3732  -20.7210   11.3807 O   0  0  0  0  0  0  0  0  0  0  0  0
  -11.9366  -20.8518   12.6111 C   0  0  0  0  0  0  0  0  0  0  0  0
  -11.3528  -21.6809   13.5584 C   0  0  0  0  0  0  0  0  0  0  0  0
   -9.9023  -22.5547   13.1740 Cl  0  0  0  0  0  0  0  0  0  0  0  0
  -11.9291  -21.8121   14.8096 C   0  0  0  0  0  0  0  0  0  0  0  0
  -11.2005  -22.8495   15.9962 Cl  0  0  0  0  0  0  0  0  0  0  0  0
  -13.0843  -21.1153   15.1151 C   0  0  0  0  0  0  0  0  0  0  0  0
  -13.6655  -20.2877   14.1729 C   0  0  0  0  0  0  0  0  0  0  0  0
  -13.0920  -20.1510   12.9235 C   0  0  0  0  0  0  0  0  0  0  0  0
   -9.1445  -20.2159   10.7109 C   0  0  0  0  0  0  0  0  0  0  0  0
   -8.9010  -21.8744   10.2594 Cl  0  0  0  0  0  0  0  0  0  0  0  0
   -8.1225  -19.3071   10.5526 C   0  0  0  0  0  0  0  0  0  0  0  0
  1  2  1  0
  1 10  1  0
  2  3  2  0
  2  4  1  0
  4  5  2  0
  4  8  1  0
  5  6  1  0
  6  7  2  0
  7  8  1  0
  8  9  1  0
 10 11  2  0
 10 14  1  0
 11 12  1  0
 12 13  2  0
 12 28  1  0
 13 14  1  0
 13 15  1  0
 15 16  2  0
 16 17  1  0
 16 26  1  0
 17 18  1  0
 18 19  2  0
 18 25  1  0
 19 20  1  0
 19 21  1  0
 21 22  1  0
 21 23  2  0
 23 24  1  0
 24 25  2  0
 26 27  1  0
 26 28  2  0
M  END
>  <Gold.Gold.Protein.RotatedWaterAtoms>  (765) 


>  <Gold.Id.Protein>  (765) 


>  <Gold.PLP.Chemscore.CHOScore>  (765) 
1.3751

>  <Gold.PLP.Chemscore.Hbond>  (765) 
1.0000

>  <Gold.PLP.Chemscore.Internal.Correction>  (765) 
0.0551

>  <Gold.PLP.Chemscore.Metal>  (765) 
0.0000

>  <Gold.PLP.Fitness>  (765) 
72.0824

>  <Gold.PLP.PLP>  (765) 
-66.6659

>  <Gold.PLP.ligand.clash>  (765) 
0.0175

>  <Gold.PLP.ligand.torsion>  (765) 
0.8732

>  <Gold.PLP.part.buried>  (765) 
-5.1347

>  <Gold.PLP.part.hbond>  (765) 
-2.8501

>  <Gold.PLP.part.metal>  (765) 
0.0000

>  <Gold.PLP.part.nonpolar>  (765) 
-60.1589

>  <Gold.PLP.part.repulsive>  (765) 
0.4919

>  <Gold.Protein.RotatedAtoms>  (765) 


>  <Gold.Protein.RotatedTorsions>  (765) 


>  <Gold.Protein.RotatedWaterAtoms>  (765) 


>  <Gold.Version>  (765) 
5.3.0

>  <PLP.Chemscore.CHOScore>  (765) 


>  <PLP.Chemscore.Hbond>  (765) 


>  <PLP.Chemscore.Internal.Correction>  (765) 


>  <PLP.Chemscore.Metal>  (765) 


>  <PLP.Fitness>  (765) 


>  <PLP.PLP>  (765) 


>  <PLP.ligand.clash>  (765) 


>  <PLP.ligand.torsion>  (765) 


>  <PLP.part.buried>  (765) 


>  <PLP.part.hbond>  (765) 


>  <PLP.part.metal>  (765) 


>  <PLP.part.nonpolar>  (765) 


>  <PLP.part.repulsive>  (765) 


>  <Version>  (765) 


$$$$
3765|Compound_1044|Compounds_3D_F|sdf|338|dock10|1
     RDKit          3D

 25 26  0  0  0  0  0  0  0  0999 V2000
   -9.7508  -18.2752   10.1537 N   0  0  0  0  0  0  0  0  0  0  0  0
  -10.8955  -18.1092   10.8459 C   0  0  0  0  0  0  0  0  0  0  0  0
  -10.8722  -17.5826   11.9419 O   0  0  0  0  0  0  0  0  0  0  0  0
  -12.1747  -18.5659   10.2737 C   0  0  0  0  0  0  0  0  0  0  0  0
  -12.3696  -18.9517    9.0309 N   0  0  0  0  0  0  0  0  0  0  0  0
  -13.6461  -19.2946    8.8735 C   0  0  0  0  0  0  0  0  0  0  0  0
  -14.2836  -19.1219   10.0566 C   0  0  0  0  0  0  0  0  0  0  0  0
  -13.3606  -18.6667   10.9450 N   0  0  0  0  0  0  0  0  0  0  0  0
  -13.5953  -18.3390   12.3543 C   0  0  0  0  0  0  0  0  0  0  0  0
   -8.5386  -17.8477   10.6970 C   0  0  0  0  0  0  0  0  0  0  0  0
   -8.4763  -16.6818   11.3193 N   0  0  0  0  0  0  0  0  0  0  0  0
   -7.3486  -16.2360   11.8504 C   0  0  0  0  0  0  0  0  0  0  0  0
   -7.3321  -14.9986   12.4979 N   0  0  0  0  0  0  0  0  0  0  0  0
   -6.8400  -13.9139   11.8674 C   0  0  0  0  0  0  0  0  0  0  0  0
   -6.4123  -14.0125   10.7368 O   0  0  0  0  0  0  0  0  0  0  0  0
   -6.8227  -12.5791   12.5659 C   0  0  0  0  0  0  0  0  0  0  0  0
   -6.1768  -16.9882   11.7701 C   0  0  0  0  0  0  0  0  0  0  0  0
   -4.6809  -16.3872   12.4807 S   0  0  0  0  0  0  0  0  0  0  0  0
   -3.5228  -16.7623   11.1415 C   0  0  0  0  0  0  0  0  0  0  0  0
   -2.7961  -16.9982   10.3007 N   0  0  0  0  0  0  0  0  0  0  0  0
   -6.2040  -18.2191   11.1242 C   0  0  0  0  0  0  0  0  0  0  0  0
   -7.4079  -18.6574   10.5833 C   0  0  0  0  0  0  0  0  0  0  0  0
   -7.5017  -20.2089    9.7530 S   0  0  0  0  0  0  0  0  0  0  0  0
   -8.0071  -19.6530    8.1056 C   0  0  0  0  0  0  0  0  0  0  0  0
   -8.3236  -19.3038    7.0719 N   0  0  0  0  0  0  0  0  0  0  0  0
  1  2  1  0
  1 10  1  0
  2  3  2  0
  2  4  1  0
  4  5  2  0
  4  8  1  0
  5  6  1  0
  6  7  2  0
  7  8  1  0
  8  9  1  0
 10 11  2  0
 10 22  1  0
 11 12  1  0
 12 13  1  0
 12 17  2  0
 13 14  1  0
 14 15  2  0
 14 16  1  0
 17 18  1  0
 17 21  1  0
 18 19  1  0
 19 20  3  0
 21 22  2  0
 22 23  1  0
 23 24  1  0
 24 25  3  0
M  END
>  <Gold.Gold.Protein.RotatedWaterAtoms>  (766) 


>  <Gold.Id.Protein>  (766) 


>  <Gold.PLP.Chemscore.CHOScore>  (766) 
0.9652

>  <Gold.PLP.Chemscore.Hbond>  (766) 
3.1316

>  <Gold.PLP.Chemscore.Internal.Correction>  (766) 
0.8250

>  <Gold.PLP.Chemscore.Metal>  (766) 
0.0000

>  <Gold.PLP.Fitness>  (766) 
61.7867

>  <Gold.PLP.PLP>  (766) 
-51.3037

>  <Gold.PLP.ligand.clash>  (766) 
0.0000

>  <Gold.PLP.ligand.torsion>  (766) 
1.3163

>  <Gold.PLP.part.buried>  (766) 
-4.3508

>  <Gold.PLP.part.hbond>  (766) 
-4.1779

>  <Gold.PLP.part.metal>  (766) 
0.0000

>  <Gold.PLP.part.nonpolar>  (766) 
-42.8317

>  <Gold.PLP.part.repulsive>  (766) 
1.0590

>  <Gold.Protein.RotatedAtoms>  (766) 


>  <Gold.Protein.RotatedTorsions>  (766) 


>  <Gold.Protein.RotatedWaterAtoms>  (766) 


>  <Gold.Version>  (766) 
5.3.0

>  <PLP.Chemscore.CHOScore>  (766) 


>  <PLP.Chemscore.Hbond>  (766) 


>  <PLP.Chemscore.Internal.Correction>  (766) 


>  <PLP.Chemscore.Metal>  (766) 


>  <PLP.Fitness>  (766) 


>  <PLP.PLP>  (766) 


>  <PLP.ligand.clash>  (766) 


>  <PLP.ligand.torsion>  (766) 


>  <PLP.part.buried>  (766) 


>  <PLP.part.hbond>  (766) 


>  <PLP.part.metal>  (766) 


>  <PLP.part.nonpolar>  (766) 


>  <PLP.part.repulsive>  (766) 


>  <Version>  (766) 


$$$$
3766|Compound_1045|Compounds_3D_F|sdf|339|dock10|1
     RDKit          3D

 27 29  0  0  0  0  0  0  0  0999 V2000
   -9.0655  -13.3929   11.0046 O   0  0  0  0  0  0  0  0  0  0  0  0
   -8.5727  -14.6283   11.2624 C   0  0  0  0  0  0  0  0  0  0  0  0
   -7.2329  -14.7994   11.6423 C   0  0  0  0  0  0  0  0  0  0  0  0
   -6.1850  -13.9614   11.8427 N   0  0  0  0  0  0  0  0  0  0  0  0
   -5.1398  -14.6516   12.1951 C   0  0  0  0  0  0  0  0  0  0  0  0
   -5.4518  -15.9784   12.2437 N   0  0  0  0  0  0  0  0  0  0  0  0
   -6.7741  -16.1038   11.8982 C   0  0  0  0  0  0  0  0  0  0  0  0
   -7.6172  -17.1218   11.7729 N   0  0  0  0  0  0  0  0  0  0  0  0
   -8.8725  -16.9142   11.4123 C   0  0  0  0  0  0  0  0  0  0  0  0
   -9.3472  -15.7002   11.1652 N   0  0  0  0  0  0  0  0  0  0  0  0
   -9.7237  -18.0050   11.2913 N   0  0  0  0  0  0  0  0  0  0  0  0
  -10.9285  -17.9895   11.8971 C   0  0  0  0  0  0  0  0  0  0  0  0
  -11.2690  -17.0217   12.5481 O   0  0  0  0  0  0  0  0  0  0  0  0
  -11.8312  -19.1469   11.7692 C   0  0  0  0  0  0  0  0  0  0  0  0
  -11.5172  -20.3182   11.2575 N   0  0  0  0  0  0  0  0  0  0  0  0
  -12.5821  -21.1153   11.3073 C   0  0  0  0  0  0  0  0  0  0  0  0
  -13.6052  -20.4259   11.8702 C   0  0  0  0  0  0  0  0  0  0  0  0
  -13.1381  -19.1898   12.1677 N   0  0  0  0  0  0  0  0  0  0  0  0
  -13.8952  -18.1007   12.7906 C   0  0  0  0  0  0  0  0  0  0  0  0
   -4.5419  -17.0696   12.6015 C   0  0  0  0  0  0  0  0  0  0  0  0
   -4.3746  -17.9380   11.4798 O   0  0  0  0  0  0  0  0  0  0  0  0
   -3.6882  -17.3395   10.3783 C   0  0  0  0  0  0  0  0  0  0  0  0
   -2.2659  -17.8969   10.3010 C   0  0  0  0  0  0  0  0  0  0  0  0
   -1.5300  -17.2035    9.2583 O   0  0  0  0  0  0  0  0  0  0  0  0
   -0.3112  -17.6771    8.9545 C   0  0  0  0  0  0  0  0  0  0  0  0
    0.0758  -18.7106    9.4478 O   0  0  0  0  0  0  0  0  0  0  0  0
    0.5740  -16.9210    7.9971 C   0  0  0  0  0  0  0  0  0  0  0  0
  1  2  1  0
  2  3  2  0
  2 10  1  0
  3  4  1  0
  3  7  1  0
  4  5  2  0
  5  6  1  0
  6  7  1  0
  6 20  1  0
  7  8  2  0
  8  9  1  0
  9 10  2  0
  9 11  1  0
 11 12  1  0
 12 13  2  0
 12 14  1  0
 14 15  2  0
 14 18  1  0
 15 16  1  0
 16 17  2  0
 17 18  1  0
 18 19  1  0
 20 21  1  0
 21 22  1  0
 22 23  1  0
 23 24  1  0
 24 25  1  0
 25 26  2  0
 25 27  1  0
M  END
>  <Gold.Gold.Protein.RotatedWaterAtoms>  (767) 


>  <Gold.Id.Protein>  (767) 


>  <Gold.PLP.Chemscore.CHOScore>  (767) 
1.9449

>  <Gold.PLP.Chemscore.Hbond>  (767) 
2.1113

>  <Gold.PLP.Chemscore.Internal.Correction>  (767) 
0.5963

>  <Gold.PLP.Chemscore.Metal>  (767) 
0.0000

>  <Gold.PLP.Fitness>  (767) 
60.1647

>  <Gold.PLP.PLP>  (767) 
-49.2034

>  <Gold.PLP.ligand.clash>  (767) 
0.0000

>  <Gold.PLP.ligand.torsion>  (767) 
0.9017

>  <Gold.PLP.part.buried>  (767) 
-3.7524

>  <Gold.PLP.part.hbond>  (767) 
-5.3817

>  <Gold.PLP.part.metal>  (767) 
0.0000

>  <Gold.PLP.part.nonpolar>  (767) 
-39.5958

>  <Gold.PLP.part.repulsive>  (767) 
0.5125

>  <Gold.Protein.RotatedAtoms>  (767) 


>  <Gold.Protein.RotatedTorsions>  (767) 


>  <Gold.Protein.RotatedWaterAtoms>  (767) 


>  <Gold.Version>  (767) 
5.3.0

>  <PLP.Chemscore.CHOScore>  (767) 


>  <PLP.Chemscore.Hbond>  (767) 


>  <PLP.Chemscore.Internal.Correction>  (767) 


>  <PLP.Chemscore.Metal>  (767) 


>  <PLP.Fitness>  (767) 


>  <PLP.PLP>  (767) 


>  <PLP.ligand.clash>  (767) 


>  <PLP.ligand.torsion>  (767) 


>  <PLP.part.buried>  (767) 


>  <PLP.part.hbond>  (767) 


>  <PLP.part.metal>  (767) 


>  <PLP.part.nonpolar>  (767) 


>  <PLP.part.repulsive>  (767) 


>  <Version>  (767) 


$$$$
3767|Compound_1046|Compounds_3D_F|sdf|340|dock10|1
     RDKit          3D

 27 29  0  0  0  0  0  0  0  0999 V2000
  -13.9160  -17.6223   12.8744 O   0  0  0  0  0  0  0  0  0  0  0  0
  -12.9823  -18.2081   12.0866 C   0  0  0  0  0  0  0  0  0  0  0  0
  -13.3515  -19.1682   11.1323 C   0  0  0  0  0  0  0  0  0  0  0  0
  -14.5267  -19.7257   10.7470 N   0  0  0  0  0  0  0  0  0  0  0  0
  -14.3068  -20.5851    9.7951 C   0  0  0  0  0  0  0  0  0  0  0  0
  -12.9743  -20.6331    9.5087 N   0  0  0  0  0  0  0  0  0  0  0  0
  -12.3416  -19.7441   10.3411 C   0  0  0  0  0  0  0  0  0  0  0  0
  -11.0826  -19.3631   10.5220 N   0  0  0  0  0  0  0  0  0  0  0  0
  -10.7799  -18.4541   11.4336 C   0  0  0  0  0  0  0  0  0  0  0  0
  -11.7016  -17.8833   12.1983 N   0  0  0  0  0  0  0  0  0  0  0  0
   -9.4512  -18.0825   11.5934 N   0  0  0  0  0  0  0  0  0  0  0  0
   -9.1298  -16.7820   11.7491 C   0  0  0  0  0  0  0  0  0  0  0  0
  -10.0022  -15.9361   11.7497 O   0  0  0  0  0  0  0  0  0  0  0  0
   -7.7203  -16.3877   11.9180 C   0  0  0  0  0  0  0  0  0  0  0  0
   -6.6832  -17.1977   11.8900 N   0  0  0  0  0  0  0  0  0  0  0  0
   -5.5718  -16.4897   12.0784 C   0  0  0  0  0  0  0  0  0  0  0  0
   -5.9164  -15.1870   12.2302 C   0  0  0  0  0  0  0  0  0  0  0  0
   -7.2649  -15.1155   12.1249 N   0  0  0  0  0  0  0  0  0  0  0  0
   -8.0819  -13.9031   12.2245 C   0  0  0  0  0  0  0  0  0  0  0  0
  -12.3359  -21.4778    8.4961 C   0  0  0  0  0  0  0  0  0  0  0  0
  -13.4055  -22.0518    7.5642 C   0  0  0  0  0  0  0  0  0  0  0  0
  -13.6990  -23.3963    7.9480 O   0  0  0  0  0  0  0  0  0  0  0  0
  -14.9866  -23.8527    7.5287 C   0  0  0  0  0  0  0  0  0  0  0  0
  -15.5652  -25.1597    8.6602 P   0  0  0  0  0  0  0  0  0  0  0  0
  -16.8942  -24.7929    9.1999 O   0  0  0  0  0  0  0  0  0  0  0  0
  -15.6768  -26.5525    7.8602 O   0  0  0  0  0  0  0  0  0  0  0  0
  -14.5192  -25.3206    9.8743 O   0  0  0  0  0  0  0  0  0  0  0  0
  1  2  1  0
  2  3  2  0
  2 10  1  0
  3  4  1  0
  3  7  1  0
  4  5  2  0
  5  6  1  0
  6  7  1  0
  6 20  1  0
  7  8  2  0
  8  9  1  0
  9 10  2  0
  9 11  1  0
 11 12  1  0
 12 13  2  0
 12 14  1  0
 14 15  2  0
 14 18  1  0
 15 16  1  0
 16 17  2  0
 17 18  1  0
 18 19  1  0
 20 21  1  0
 21 22  1  0
 22 23  1  0
 23 24  1  0
 24 25  2  0
 24 26  1  0
 24 27  1  0
M  END
>  <Gold.Gold.Protein.RotatedWaterAtoms>  (768) 


>  <Gold.Id.Protein>  (768) 


>  <Gold.PLP.Chemscore.CHOScore>  (768) 
0.0000

>  <Gold.PLP.Chemscore.Hbond>  (768) 
3.1474

>  <Gold.PLP.Chemscore.Internal.Correction>  (768) 
0.6658

>  <Gold.PLP.Chemscore.Metal>  (768) 
0.0000

>  <Gold.PLP.Fitness>  (768) 
56.9604

>  <Gold.PLP.PLP>  (768) 
-49.0748

>  <Gold.PLP.ligand.clash>  (768) 
0.0000

>  <Gold.PLP.ligand.torsion>  (768) 
1.1113

>  <Gold.PLP.part.buried>  (768) 
-9.0317

>  <Gold.PLP.part.hbond>  (768) 
-3.5016

>  <Gold.PLP.part.metal>  (768) 
0.0000

>  <Gold.PLP.part.nonpolar>  (768) 
-36.7449

>  <Gold.PLP.part.repulsive>  (768) 
0.3561

>  <Gold.Protein.RotatedAtoms>  (768) 


>  <Gold.Protein.RotatedTorsions>  (768) 


>  <Gold.Protein.RotatedWaterAtoms>  (768) 


>  <Gold.Version>  (768) 
5.3.0

>  <PLP.Chemscore.CHOScore>  (768) 


>  <PLP.Chemscore.Hbond>  (768) 


>  <PLP.Chemscore.Internal.Correction>  (768) 


>  <PLP.Chemscore.Metal>  (768) 


>  <PLP.Fitness>  (768) 


>  <PLP.PLP>  (768) 


>  <PLP.ligand.clash>  (768) 


>  <PLP.ligand.torsion>  (768) 


>  <PLP.part.buried>  (768) 


>  <PLP.part.hbond>  (768) 


>  <PLP.part.metal>  (768) 


>  <PLP.part.nonpolar>  (768) 


>  <PLP.part.repulsive>  (768) 


>  <Version>  (768) 


$$$$
3768|Compound_1056|Compounds_3D_F|sdf|344|dock10|1
     RDKit          3D

 19 20  0  0  0  0  0  0  0  0999 V2000
   -8.2106  -16.7277   11.6374 N   0  0  0  0  0  0  0  0  0  0  0  0
   -8.1767  -15.4524   11.2037 C   0  0  0  0  0  0  0  0  0  0  0  0
   -8.9252  -15.0925   10.3144 O   0  0  0  0  0  0  0  0  0  0  0  0
   -7.2380  -14.4974   11.8038 C   0  0  0  0  0  0  0  0  0  0  0  0
   -7.4020  -13.1442   11.9094 C   0  0  0  0  0  0  0  0  0  0  0  0
   -6.3215  -12.6507   12.5157 N   0  0  0  0  0  0  0  0  0  0  0  0
   -5.4909  -13.6215   12.7961 C   0  0  0  0  0  0  0  0  0  0  0  0
   -6.0162  -14.7869   12.3799 N   0  0  0  0  0  0  0  0  0  0  0  0
   -5.4048  -16.1117   12.5044 C   0  0  0  0  0  0  0  0  0  0  0  0
   -8.5890  -12.3521   11.4257 C   0  0  0  0  0  0  0  0  0  0  0  0
   -9.1691  -17.6082   11.1402 C   0  0  0  0  0  0  0  0  0  0  0  0
  -10.4466  -17.5702   11.3974 N   0  0  0  0  0  0  0  0  0  0  0  0
  -11.0631  -18.6365   10.6979 O   0  0  0  0  0  0  0  0  0  0  0  0
  -10.0481  -19.3287    9.9918 N   0  0  0  0  0  0  0  0  0  0  0  0
   -8.9144  -18.7315   10.2338 C   0  0  0  0  0  0  0  0  0  0  0  0
   -7.6711  -19.1049    9.7252 N   0  0  0  0  0  0  0  0  0  0  0  0
   -7.5421  -19.4198    8.4213 C   0  0  0  0  0  0  0  0  0  0  0  0
   -8.5088  -19.3788    7.6896 O   0  0  0  0  0  0  0  0  0  0  0  0
   -6.1986  -19.8224    7.8719 C   0  0  0  0  0  0  0  0  0  0  0  0
  1  2  1  0
  1 11  1  0
  2  3  2  0
  2  4  1  0
  4  5  2  0
  4  8  1  0
  5  6  1  0
  5 10  1  0
  6  7  2  0
  7  8  1  0
  8  9  1  0
 11 12  2  0
 11 15  1  0
 12 13  1  0
 13 14  1  0
 14 15  2  0
 15 16  1  0
 16 17  1  0
 17 18  2  0
 17 19  1  0
M  END
>  <Gold.Gold.Protein.RotatedWaterAtoms>  (769) 


>  <Gold.Id.Protein>  (769) 


>  <Gold.PLP.Chemscore.CHOScore>  (769) 
1.0000

>  <Gold.PLP.Chemscore.Hbond>  (769) 
1.8640

>  <Gold.PLP.Chemscore.Internal.Correction>  (769) 
0.6752

>  <Gold.PLP.Chemscore.Metal>  (769) 
0.0000

>  <Gold.PLP.Fitness>  (769) 
46.0049

>  <Gold.PLP.PLP>  (769) 
-39.4925

>  <Gold.PLP.ligand.clash>  (769) 
0.0000

>  <Gold.PLP.ligand.torsion>  (769) 
1.3774

>  <Gold.PLP.part.buried>  (769) 
-9.2744

>  <Gold.PLP.part.hbond>  (769) 
-3.0000

>  <Gold.PLP.part.metal>  (769) 
0.0000

>  <Gold.PLP.part.nonpolar>  (769) 
-27.7243

>  <Gold.PLP.part.repulsive>  (769) 
0.4069

>  <Gold.Protein.RotatedAtoms>  (769) 


>  <Gold.Protein.RotatedTorsions>  (769) 


>  <Gold.Protein.RotatedWaterAtoms>  (769) 


>  <Gold.Version>  (769) 
5.3.0

>  <PLP.Chemscore.CHOScore>  (769) 


>  <PLP.Chemscore.Hbond>  (769) 


>  <PLP.Chemscore.Internal.Correction>  (769) 


>  <PLP.Chemscore.Metal>  (769) 


>  <PLP.Fitness>  (769) 


>  <PLP.PLP>  (769) 


>  <PLP.ligand.clash>  (769) 


>  <PLP.ligand.torsion>  (769) 


>  <PLP.part.buried>  (769) 


>  <PLP.part.hbond>  (769) 


>  <PLP.part.metal>  (769) 


>  <PLP.part.nonpolar>  (769) 


>  <PLP.part.repulsive>  (769) 


>  <Version>  (769) 


$$$$
3769|Compound_1065|Compounds_3D_F|sdf|347|dock10|1
     RDKit          3D

 26 29  0  0  0  0  0  0  0  0999 V2000
  -10.2774  -23.1490   14.1097 O   0  0  0  0  0  0  0  0  0  0  0  0
  -10.9019  -22.0682   13.5866 C   0  0  0  0  0  0  0  0  0  0  0  0
  -12.2192  -21.7458   13.9652 C   0  0  0  0  0  0  0  0  0  0  0  0
  -13.1130  -22.2984   14.8038 N   0  0  0  0  0  0  0  0  0  0  0  0
  -14.2038  -21.6146   14.8013 N   0  0  0  0  0  0  0  0  0  0  0  0
  -14.0715  -20.5309   13.9203 N   0  0  0  0  0  0  0  0  0  0  0  0
  -12.8156  -20.6101   13.3874 C   0  0  0  0  0  0  0  0  0  0  0  0
  -12.1224  -19.8861   12.5137 N   0  0  0  0  0  0  0  0  0  0  0  0
  -10.8866  -20.2271   12.1885 C   0  0  0  0  0  0  0  0  0  0  0  0
  -10.2829  -21.2867   12.7128 N   0  0  0  0  0  0  0  0  0  0  0  0
  -10.1950  -19.4463   11.2724 N   0  0  0  0  0  0  0  0  0  0  0  0
  -10.1942  -18.1043   11.3959 C   0  0  0  0  0  0  0  0  0  0  0  0
  -10.8716  -17.5722   12.2546 O   0  0  0  0  0  0  0  0  0  0  0  0
   -9.3736  -17.2835   10.4926 C   0  0  0  0  0  0  0  0  0  0  0  0
   -9.0305  -17.5779    9.1844 C   0  0  0  0  0  0  0  0  0  0  0  0
   -8.2501  -16.5008    8.7565 C   0  0  0  0  0  0  0  0  0  0  0  0
   -8.1554  -15.6534    9.7493 N   0  0  0  0  0  0  0  0  0  0  0  0
   -8.8030  -16.0746   10.7748 N   0  0  0  0  0  0  0  0  0  0  0  0
   -8.9061  -15.3706   12.0561 C   0  0  0  0  0  0  0  0  0  0  0  0
   -7.8066  -14.3452   12.1565 C   0  0  0  0  0  0  0  0  0  0  0  0
   -8.0819  -13.0118   11.9182 C   0  0  0  0  0  0  0  0  0  0  0  0
   -7.0741  -12.0707   12.0100 C   0  0  0  0  0  0  0  0  0  0  0  0
   -5.7901  -12.4631   12.3406 C   0  0  0  0  0  0  0  0  0  0  0  0
   -5.5148  -13.7965   12.5789 C   0  0  0  0  0  0  0  0  0  0  0  0
   -6.5246  -14.7368   12.4918 C   0  0  0  0  0  0  0  0  0  0  0  0
   -7.6274  -16.3435    7.3932 C   0  0  0  0  0  0  0  0  0  0  0  0
  1  2  1  0
  2  3  2  0
  2 10  1  0
  3  4  1  0
  3  7  1  0
  4  5  2  0
  5  6  1  0
  6  7  1  0
  7  8  2  0
  8  9  1  0
  9 10  2  0
  9 11  1  0
 11 12  1  0
 12 13  2  0
 12 14  1  0
 14 15  2  0
 14 18  1  0
 15 16  1  0
 16 17  2  0
 16 26  1  0
 17 18  1  0
 18 19  1  0
 19 20  1  0
 20 21  2  0
 20 25  1  0
 21 22  1  0
 22 23  2  0
 23 24  1  0
 24 25  2  0
M  END
>  <Gold.Gold.Protein.RotatedWaterAtoms>  (770) 


>  <Gold.Id.Protein>  (770) 


>  <Gold.PLP.Chemscore.CHOScore>  (770) 
0.0000

>  <Gold.PLP.Chemscore.Hbond>  (770) 
2.9600

>  <Gold.PLP.Chemscore.Internal.Correction>  (770) 
0.3659

>  <Gold.PLP.Chemscore.Metal>  (770) 
0.0000

>  <Gold.PLP.Fitness>  (770) 
62.2024

>  <Gold.PLP.PLP>  (770) 
-55.5558

>  <Gold.PLP.ligand.clash>  (770) 
0.0000

>  <Gold.PLP.ligand.torsion>  (770) 
1.2996

>  <Gold.PLP.part.buried>  (770) 
-9.9928

>  <Gold.PLP.part.hbond>  (770) 
-3.1067

>  <Gold.PLP.part.metal>  (770) 
0.0000

>  <Gold.PLP.part.nonpolar>  (770) 
-42.5526

>  <Gold.PLP.part.repulsive>  (770) 
0.6032

>  <Gold.Protein.RotatedAtoms>  (770) 


>  <Gold.Protein.RotatedTorsions>  (770) 


>  <Gold.Protein.RotatedWaterAtoms>  (770) 


>  <Gold.Version>  (770) 
5.3.0

>  <PLP.Chemscore.CHOScore>  (770) 


>  <PLP.Chemscore.Hbond>  (770) 


>  <PLP.Chemscore.Internal.Correction>  (770) 


>  <PLP.Chemscore.Metal>  (770) 


>  <PLP.Fitness>  (770) 


>  <PLP.PLP>  (770) 


>  <PLP.ligand.clash>  (770) 


>  <PLP.ligand.torsion>  (770) 


>  <PLP.part.buried>  (770) 


>  <PLP.part.hbond>  (770) 


>  <PLP.part.metal>  (770) 


>  <PLP.part.nonpolar>  (770) 


>  <PLP.part.repulsive>  (770) 


>  <Version>  (770) 


$$$$
3770|Compound_1080|Compounds_3D_F|sdf|352|dock10|1
     RDKit          3D

 24 26  0  0  0  0  0  0  0  0999 V2000
   -9.6179  -15.8055   12.4616 N   0  0  0  0  0  0  0  0  0  0  0  0
   -8.7498  -15.3793   11.5219 C   0  0  0  0  0  0  0  0  0  0  0  0
   -8.8249  -15.8089   10.3866 O   0  0  0  0  0  0  0  0  0  0  0  0
   -7.7118  -14.3939   11.8710 C   0  0  0  0  0  0  0  0  0  0  0  0
   -6.3545  -14.7608   11.8897 C   0  0  0  0  0  0  0  0  0  0  0  0
   -5.4254  -13.8717   12.2044 N   0  0  0  0  0  0  0  0  0  0  0  0
   -5.7315  -12.6246   12.5076 C   0  0  0  0  0  0  0  0  0  0  0  0
   -7.0449  -12.1886   12.5092 C   0  0  0  0  0  0  0  0  0  0  0  0
   -8.0567  -13.0742   12.1836 C   0  0  0  0  0  0  0  0  0  0  0  0
   -5.9888  -16.0575   11.5796 N   0  0  0  0  0  0  0  0  0  0  0  0
   -4.6561  -16.3716   12.1158 C   0  0  0  0  0  0  0  0  0  0  0  0
   -4.3164  -17.8306   11.8016 C   0  0  0  0  0  0  0  0  0  0  0  0
   -4.3941  -18.0398   10.3884 O   0  0  0  0  0  0  0  0  0  0  0  0
   -5.6782  -17.7437    9.8320 C   0  0  0  0  0  0  0  0  0  0  0  0
   -6.0318  -16.2836   10.1275 C   0  0  0  0  0  0  0  0  0  0  0  0
  -10.5908  -16.7373   12.1355 C   0  0  0  0  0  0  0  0  0  0  0  0
  -11.6944  -16.9730   12.8002 N   0  0  0  0  0  0  0  0  0  0  0  0
  -12.3581  -17.9021   12.2085 N   0  0  0  0  0  0  0  0  0  0  0  0
  -11.7102  -18.2922   11.1496 C   0  0  0  0  0  0  0  0  0  0  0  0
  -10.5795  -17.5637   11.0740 O   0  0  0  0  0  0  0  0  0  0  0  0
  -12.1461  -19.3619   10.1815 C   0  0  0  0  0  0  0  0  0  0  0  0
  -12.3884  -20.5507   10.8787 F   0  0  0  0  0  0  0  0  0  0  0  0
  -13.3175  -18.9549    9.5336 F   0  0  0  0  0  0  0  0  0  0  0  0
  -11.1390  -19.5731    9.2349 F   0  0  0  0  0  0  0  0  0  0  0  0
  1  2  1  0
  1 16  1  0
  2  3  2  0
  2  4  1  0
  4  5  1  0
  4  9  2  0
  5  6  2  0
  5 10  1  0
  6  7  1  0
  7  8  2  0
  8  9  1  0
 10 11  1  0
 10 15  1  0
 11 12  1  0
 12 13  1  0
 13 14  1  0
 14 15  1  0
 16 17  2  0
 16 20  1  0
 17 18  1  0
 18 19  2  0
 19 20  1  0
 19 21  1  0
 21 22  1  0
 21 23  1  0
 21 24  1  0
M  END
>  <Gold.Gold.Protein.RotatedWaterAtoms>  (771) 


>  <Gold.Id.Protein>  (771) 


>  <Gold.PLP.Chemscore.CHOScore>  (771) 
0.0549

>  <Gold.PLP.Chemscore.Hbond>  (771) 
2.7680

>  <Gold.PLP.Chemscore.Internal.Correction>  (771) 
0.0163

>  <Gold.PLP.Chemscore.Metal>  (771) 
0.0000

>  <Gold.PLP.Fitness>  (771) 
51.8049

>  <Gold.PLP.PLP>  (771) 
-47.2625

>  <Gold.PLP.ligand.clash>  (771) 
0.0000

>  <Gold.PLP.ligand.torsion>  (771) 
1.9713

>  <Gold.PLP.part.buried>  (771) 
0.2753

>  <Gold.PLP.part.hbond>  (771) 
-8.4106

>  <Gold.PLP.part.metal>  (771) 
0.0000

>  <Gold.PLP.part.nonpolar>  (771) 
-38.1626

>  <Gold.PLP.part.repulsive>  (771) 
0.7948

>  <Gold.Protein.RotatedAtoms>  (771) 


>  <Gold.Protein.RotatedTorsions>  (771) 


>  <Gold.Protein.RotatedWaterAtoms>  (771) 


>  <Gold.Version>  (771) 
5.3.0

>  <PLP.Chemscore.CHOScore>  (771) 


>  <PLP.Chemscore.Hbond>  (771) 


>  <PLP.Chemscore.Internal.Correction>  (771) 


>  <PLP.Chemscore.Metal>  (771) 


>  <PLP.Fitness>  (771) 


>  <PLP.PLP>  (771) 


>  <PLP.ligand.clash>  (771) 


>  <PLP.ligand.torsion>  (771) 


>  <PLP.part.buried>  (771) 


>  <PLP.part.hbond>  (771) 


>  <PLP.part.metal>  (771) 


>  <PLP.part.nonpolar>  (771) 


>  <PLP.part.repulsive>  (771) 


>  <Version>  (771) 


$$$$
3771|Compound_1091|Compounds_3D_F|sdf|354|dock10|1
     RDKit          3D

 31 33  0  0  0  0  0  0  0  0999 V2000
   -9.6258  -18.4799   10.2609 N   0  0  0  0  0  0  0  0  0  0  0  0
  -10.8203  -18.3897   10.8774 C   0  0  0  0  0  0  0  0  0  0  0  0
  -10.9122  -17.8184   11.9467 O   0  0  0  0  0  0  0  0  0  0  0  0
  -12.0192  -18.9866   10.2539 C   0  0  0  0  0  0  0  0  0  0  0  0
  -12.1105  -20.3769   10.0654 C   0  0  0  0  0  0  0  0  0  0  0  0
  -13.1890  -20.9072    9.5058 N   0  0  0  0  0  0  0  0  0  0  0  0
  -14.2011  -20.1644    9.1097 C   0  0  0  0  0  0  0  0  0  0  0  0
  -14.1850  -18.7878    9.2620 C   0  0  0  0  0  0  0  0  0  0  0  0
  -13.0864  -18.1797    9.8452 C   0  0  0  0  0  0  0  0  0  0  0  0
  -10.9962  -21.2542   10.4956 C   0  0  0  0  0  0  0  0  0  0  0  0
   -9.9801  -21.4773    9.6739 N   0  0  0  0  0  0  0  0  0  0  0  0
   -8.9689  -22.2504   10.0161 C   0  0  0  0  0  0  0  0  0  0  0  0
   -8.9244  -22.8660   11.2555 C   0  0  0  0  0  0  0  0  0  0  0  0
   -9.9592  -22.6677   12.1540 C   0  0  0  0  0  0  0  0  0  0  0  0
  -11.0198  -21.8398   11.7733 C   0  0  0  0  0  0  0  0  0  0  0  0
  -12.1501  -21.5941   12.6923 C   0  0  0  0  0  0  0  0  0  0  0  0
  -13.2857  -21.5505   12.2612 O   0  0  0  0  0  0  0  0  0  0  0  0
  -11.9221  -21.4164   14.0087 N   0  0  0  0  0  0  0  0  0  0  0  0
  -13.0426  -21.1722   14.9196 C   0  0  0  0  0  0  0  0  0  0  0  0
   -8.5111  -17.8384   10.8032 C   0  0  0  0  0  0  0  0  0  0  0  0
   -8.6326  -16.6132   11.2887 N   0  0  0  0  0  0  0  0  0  0  0  0
   -7.6023  -15.9687   11.8131 C   0  0  0  0  0  0  0  0  0  0  0  0
   -7.7763  -14.6774   12.3137 N   0  0  0  0  0  0  0  0  0  0  0  0
   -8.6659  -13.8456   11.7369 C   0  0  0  0  0  0  0  0  0  0  0  0
   -9.3819  -14.2478   10.8440 O   0  0  0  0  0  0  0  0  0  0  0  0
   -8.7705  -12.4156   12.1994 C   0  0  0  0  0  0  0  0  0  0  0  0
   -6.3472  -16.5649   11.8716 C   0  0  0  0  0  0  0  0  0  0  0  0
   -5.3002  -15.9021   12.4084 F   0  0  0  0  0  0  0  0  0  0  0  0
   -6.1834  -17.8498   11.3713 C   0  0  0  0  0  0  0  0  0  0  0  0
   -7.2858  -18.4963   10.8343 C   0  0  0  0  0  0  0  0  0  0  0  0
   -7.1688  -19.7465   10.3364 F   0  0  0  0  0  0  0  0  0  0  0  0
  1  2  1  0
  1 20  1  0
  2  3  2  0
  2  4  1  0
  4  5  1  0
  4  9  2  0
  5  6  2  0
  5 10  1  0
  6  7  1  0
  7  8  2  0
  8  9  1  0
 10 11  2  0
 10 15  1  0
 11 12  1  0
 12 13  2  0
 13 14  1  0
 14 15  2  0
 15 16  1  0
 16 17  2  0
 16 18  1  0
 18 19  1  0
 20 21  2  0
 20 30  1  0
 21 22  1  0
 22 23  1  0
 22 27  2  0
 23 24  1  0
 24 25  2  0
 24 26  1  0
 27 28  1  0
 27 29  1  0
 29 30  2  0
 30 31  1  0
M  END
>  <Gold.Gold.Protein.RotatedWaterAtoms>  (772) 


>  <Gold.Id.Protein>  (772) 


>  <Gold.PLP.Chemscore.CHOScore>  (772) 
0.0000

>  <Gold.PLP.Chemscore.Hbond>  (772) 
1.3413

>  <Gold.PLP.Chemscore.Internal.Correction>  (772) 
5.0091

>  <Gold.PLP.Chemscore.Metal>  (772) 
0.0000

>  <Gold.PLP.Fitness>  (772) 
55.9714

>  <Gold.PLP.PLP>  (772) 
-54.7098

>  <Gold.PLP.ligand.clash>  (772) 
0.0000

>  <Gold.PLP.ligand.torsion>  (772) 
3.8856

>  <Gold.PLP.part.buried>  (772) 
-10.5445

>  <Gold.PLP.part.hbond>  (772) 
-2.1772

>  <Gold.PLP.part.metal>  (772) 
0.0000

>  <Gold.PLP.part.nonpolar>  (772) 
-43.8516

>  <Gold.PLP.part.repulsive>  (772) 
1.2682

>  <Gold.Protein.RotatedAtoms>  (772) 


>  <Gold.Protein.RotatedTorsions>  (772) 


>  <Gold.Protein.RotatedWaterAtoms>  (772) 


>  <Gold.Version>  (772) 
5.3.0

>  <PLP.Chemscore.CHOScore>  (772) 


>  <PLP.Chemscore.Hbond>  (772) 


>  <PLP.Chemscore.Internal.Correction>  (772) 


>  <PLP.Chemscore.Metal>  (772) 


>  <PLP.Fitness>  (772) 


>  <PLP.PLP>  (772) 


>  <PLP.ligand.clash>  (772) 


>  <PLP.ligand.torsion>  (772) 


>  <PLP.part.buried>  (772) 


>  <PLP.part.hbond>  (772) 


>  <PLP.part.metal>  (772) 


>  <PLP.part.nonpolar>  (772) 


>  <PLP.part.repulsive>  (772) 


>  <Version>  (772) 


$$$$
3772|Compound_1092|Compounds_3D_F|sdf|355|dock10|1
     RDKit          3D

 29 31  0  0  0  0  0  0  0  0999 V2000
   -9.6886  -16.2690   10.1319 N   0  0  0  0  0  0  0  0  0  0  0  0
   -8.7409  -16.1844   11.0863 C   0  0  0  0  0  0  0  0  0  0  0  0
   -8.3861  -17.1841   11.6800 O   0  0  0  0  0  0  0  0  0  0  0  0
   -8.1346  -14.8784   11.4112 C   0  0  0  0  0  0  0  0  0  0  0  0
   -6.7598  -14.7760   11.6886 C   0  0  0  0  0  0  0  0  0  0  0  0
   -6.2214  -13.6002   11.9794 N   0  0  0  0  0  0  0  0  0  0  0  0
   -6.9407  -12.4985   12.0199 C   0  0  0  0  0  0  0  0  0  0  0  0
   -8.3007  -12.5187   11.7577 C   0  0  0  0  0  0  0  0  0  0  0  0
   -8.9165  -13.7180   11.4433 C   0  0  0  0  0  0  0  0  0  0  0  0
   -5.9097  -15.9889   11.6560 C   0  0  0  0  0  0  0  0  0  0  0  0
   -5.3452  -16.4287   12.7707 N   0  0  0  0  0  0  0  0  0  0  0  0
   -4.5826  -17.5026   12.7857 C   0  0  0  0  0  0  0  0  0  0  0  0
   -4.3359  -18.2238   11.6302 C   0  0  0  0  0  0  0  0  0  0  0  0
   -4.9002  -17.8098   10.4355 C   0  0  0  0  0  0  0  0  0  0  0  0
   -5.7104  -16.6697   10.4421 C   0  0  0  0  0  0  0  0  0  0  0  0
   -6.3370  -16.1844    9.1950 C   0  0  0  0  0  0  0  0  0  0  0  0
   -6.0980  -15.0631    8.7921 O   0  0  0  0  0  0  0  0  0  0  0  0
   -7.1735  -16.9854    8.5060 N   0  0  0  0  0  0  0  0  0  0  0  0
   -7.7946  -16.5036    7.2696 C   0  0  0  0  0  0  0  0  0  0  0  0
  -10.2592  -17.4881    9.8326 C   0  0  0  0  0  0  0  0  0  0  0  0
   -9.6312  -18.6449    9.7580 N   0  0  0  0  0  0  0  0  0  0  0  0
  -10.4750  -19.5685    9.4576 N   0  0  0  0  0  0  0  0  0  0  0  0
  -11.6713  -19.0406    9.3282 C   0  0  0  0  0  0  0  0  0  0  0  0
  -11.5554  -17.7141    9.5691 O   0  0  0  0  0  0  0  0  0  0  0  0
  -12.9068  -19.7577    8.9896 C   0  0  0  0  0  0  0  0  0  0  0  0
  -13.8886  -19.1401    8.6246 O   0  0  0  0  0  0  0  0  0  0  0  0
  -12.9530  -21.1028    9.0831 O   0  0  0  0  0  0  0  0  0  0  0  0
  -14.2673  -21.7206    9.0594 C   0  0  0  0  0  0  0  0  0  0  0  0
  -14.7647  -21.8051    7.6150 C   0  0  0  0  0  0  0  0  0  0  0  0
  1  2  1  0
  1 20  1  0
  2  3  2  0
  2  4  1  0
  4  5  1  0
  4  9  2  0
  5  6  2  0
  5 10  1  0
  6  7  1  0
  7  8  2  0
  8  9  1  0
 10 11  2  0
 10 15  1  0
 11 12  1  0
 12 13  2  0
 13 14  1  0
 14 15  2  0
 15 16  1  0
 16 17  2  0
 16 18  1  0
 18 19  1  0
 20 21  2  0
 20 24  1  0
 21 22  1  0
 22 23  2  0
 23 24  1  0
 23 25  1  0
 25 26  2  0
 25 27  1  0
 27 28  1  0
 28 29  1  0
M  END
>  <Gold.Gold.Protein.RotatedWaterAtoms>  (773) 


>  <Gold.Id.Protein>  (773) 


>  <Gold.PLP.Chemscore.CHOScore>  (773) 
0.0000

>  <Gold.PLP.Chemscore.Hbond>  (773) 
1.0000

>  <Gold.PLP.Chemscore.Internal.Correction>  (773) 
4.7060

>  <Gold.PLP.Chemscore.Metal>  (773) 
0.0000

>  <Gold.PLP.Fitness>  (773) 
54.2888

>  <Gold.PLP.PLP>  (773) 
-53.8576

>  <Gold.PLP.ligand.clash>  (773) 
0.0075

>  <Gold.PLP.ligand.torsion>  (773) 
3.6337

>  <Gold.PLP.part.buried>  (773) 
-8.9721

>  <Gold.PLP.part.hbond>  (773) 
-3.4866

>  <Gold.PLP.part.metal>  (773) 
0.0000

>  <Gold.PLP.part.nonpolar>  (773) 
-43.4052

>  <Gold.PLP.part.repulsive>  (773) 
0.6682

>  <Gold.Protein.RotatedAtoms>  (773) 


>  <Gold.Protein.RotatedTorsions>  (773) 


>  <Gold.Protein.RotatedWaterAtoms>  (773) 


>  <Gold.Version>  (773) 
5.3.0

>  <PLP.Chemscore.CHOScore>  (773) 


>  <PLP.Chemscore.Hbond>  (773) 


>  <PLP.Chemscore.Internal.Correction>  (773) 


>  <PLP.Chemscore.Metal>  (773) 


>  <PLP.Fitness>  (773) 


>  <PLP.PLP>  (773) 


>  <PLP.ligand.clash>  (773) 


>  <PLP.ligand.torsion>  (773) 


>  <PLP.part.buried>  (773) 


>  <PLP.part.hbond>  (773) 


>  <PLP.part.metal>  (773) 


>  <PLP.part.nonpolar>  (773) 


>  <PLP.part.repulsive>  (773) 


>  <Version>  (773) 


$$$$
3773|Compound_1095|Compounds_3D_F|sdf|358|dock10|1
     RDKit          3D

 38 42  0  0  0  0  0  0  0  0999 V2000
   -7.6902  -16.4428    6.4193 O   0  0  0  0  0  0  0  0  0  0  0  0
   -8.1267  -16.4253    7.7015 C   0  0  0  0  0  0  0  0  0  0  0  0
   -9.2918  -16.9692    8.0280 N   0  0  0  0  0  0  0  0  0  0  0  0
   -9.7278  -16.9571    9.2808 C   0  0  0  0  0  0  0  0  0  0  0  0
   -9.0354  -16.4083   10.2638 N   0  0  0  0  0  0  0  0  0  0  0  0
   -7.8575  -15.8405   10.0261 C   0  0  0  0  0  0  0  0  0  0  0  0
   -7.3537  -15.8360    8.7136 C   0  0  0  0  0  0  0  0  0  0  0  0
   -6.1545  -15.2031    8.7498 N   0  0  0  0  0  0  0  0  0  0  0  0
   -5.8987  -14.8293    9.9693 C   0  0  0  0  0  0  0  0  0  0  0  0
   -6.9174  -15.2037   10.7954 N   0  0  0  0  0  0  0  0  0  0  0  0
   -6.9973  -14.9611   12.2378 C   0  0  0  0  0  0  0  0  0  0  0  0
   -7.9019  -13.7766   12.5283 C   0  0  0  0  0  0  0  0  0  0  0  0
   -9.2044  -13.8075   12.6510 C   0  0  0  0  0  0  0  0  0  0  0  0
   -7.0175  -12.5532   12.6496 C   0  0  0  0  0  0  0  0  0  0  0  0
   -7.3952  -11.5264   11.5796 C   0  0  0  0  0  0  0  0  0  0  0  0
   -6.5515  -10.3793   11.7024 O   0  0  0  0  0  0  0  0  0  0  0  0
   -5.5651  -13.0280   12.4362 C   0  0  0  0  0  0  0  0  0  0  0  0
   -4.6746  -12.3318   13.3105 O   0  0  0  0  0  0  0  0  0  0  0  0
   -5.6130  -14.5390   12.7927 C   0  0  0  0  0  0  0  0  0  0  0  0
  -10.9552  -17.5406    9.5689 N   0  0  0  0  0  0  0  0  0  0  0  0
  -11.1492  -18.8537    9.3342 C   0  0  0  0  0  0  0  0  0  0  0  0
  -10.2503  -19.5264    8.8693 O   0  0  0  0  0  0  0  0  0  0  0  0
  -12.4542  -19.4741    9.6405 C   0  0  0  0  0  0  0  0  0  0  0  0
  -12.5197  -20.7376   10.2523 C   0  0  0  0  0  0  0  0  0  0  0  0
  -13.6940  -21.2891   10.5262 N   0  0  0  0  0  0  0  0  0  0  0  0
  -14.8281  -20.6837   10.2393 C   0  0  0  0  0  0  0  0  0  0  0  0
  -14.8444  -19.4366    9.6353 C   0  0  0  0  0  0  0  0  0  0  0  0
  -13.6472  -18.8113    9.3324 C   0  0  0  0  0  0  0  0  0  0  0  0
  -11.2703  -21.4570   10.5942 C   0  0  0  0  0  0  0  0  0  0  0  0
  -10.4791  -21.8986    9.6272 N   0  0  0  0  0  0  0  0  0  0  0  0
   -9.3595  -22.5417    9.8865 C   0  0  0  0  0  0  0  0  0  0  0  0
   -8.9577  -22.7871   11.1893 C   0  0  0  0  0  0  0  0  0  0  0  0
   -9.7466  -22.3484   12.2393 C   0  0  0  0  0  0  0  0  0  0  0  0
  -10.9274  -21.6616   11.9422 C   0  0  0  0  0  0  0  0  0  0  0  0
  -11.8057  -21.1717   13.0245 C   0  0  0  0  0  0  0  0  0  0  0  0
  -11.6095  -20.0780   13.5187 O   0  0  0  0  0  0  0  0  0  0  0  0
  -12.8233  -21.9378   13.4649 N   0  0  0  0  0  0  0  0  0  0  0  0
  -13.6939  -21.4523   14.5388 C   0  0  0  0  0  0  0  0  0  0  0  0
  1  2  1  0
  2  3  2  0
  2  7  1  0
  3  4  1  0
  4  5  2  0
  4 20  1  0
  5  6  1  0
  6  7  2  0
  6 10  1  0
  7  8  1  0
  8  9  2  0
  9 10  1  0
 10 11  1  0
 11 12  1  0
 11 19  1  0
 12 13  2  0
 12 14  1  0
 14 15  1  0
 14 17  1  0
 15 16  1  0
 17 18  1  0
 17 19  1  0
 20 21  1  0
 21 22  2  0
 21 23  1  0
 23 24  1  0
 23 28  2  0
 24 25  2  0
 24 29  1  0
 25 26  1  0
 26 27  2  0
 27 28  1  0
 29 30  2  0
 29 34  1  0
 30 31  1  0
 31 32  2  0
 32 33  1  0
 33 34  2  0
 34 35  1  0
 35 36  2  0
 35 37  1  0
 37 38  1  0
M  END
>  <Gold.Gold.Protein.RotatedWaterAtoms>  (774) 


>  <Gold.Id.Protein>  (774) 


>  <Gold.PLP.Chemscore.CHOScore>  (774) 
0.7600

>  <Gold.PLP.Chemscore.Hbond>  (774) 
2.7121

>  <Gold.PLP.Chemscore.Internal.Correction>  (774) 
4.8115

>  <Gold.PLP.Chemscore.Metal>  (774) 
0.0000

>  <Gold.PLP.Fitness>  (774) 
73.9994

>  <Gold.PLP.PLP>  (774) 
-67.6874

>  <Gold.PLP.ligand.clash>  (774) 
0.0000

>  <Gold.PLP.ligand.torsion>  (774) 
4.4578

>  <Gold.PLP.part.buried>  (774) 
-1.3057

>  <Gold.PLP.part.hbond>  (774) 
-10.8390

>  <Gold.PLP.part.metal>  (774) 
0.0000

>  <Gold.PLP.part.nonpolar>  (774) 
-57.8532

>  <Gold.PLP.part.repulsive>  (774) 
0.5501

>  <Gold.Protein.RotatedAtoms>  (774) 


>  <Gold.Protein.RotatedTorsions>  (774) 


>  <Gold.Protein.RotatedWaterAtoms>  (774) 


>  <Gold.Version>  (774) 
5.3.0

>  <PLP.Chemscore.CHOScore>  (774) 


>  <PLP.Chemscore.Hbond>  (774) 


>  <PLP.Chemscore.Internal.Correction>  (774) 


>  <PLP.Chemscore.Metal>  (774) 


>  <PLP.Fitness>  (774) 


>  <PLP.PLP>  (774) 


>  <PLP.ligand.clash>  (774) 


>  <PLP.ligand.torsion>  (774) 


>  <PLP.part.buried>  (774) 


>  <PLP.part.hbond>  (774) 


>  <PLP.part.metal>  (774) 


>  <PLP.part.nonpolar>  (774) 


>  <PLP.part.repulsive>  (774) 


>  <Version>  (774) 


$$$$
3774|Compound_1122|Compounds_3D_F|sdf|376|dock10|1
     RDKit          3D

 21 22  0  0  0  0  0  0  0  0999 V2000
   -6.2508  -17.8643   10.3611 O   0  0  0  0  0  0  0  0  0  0  0  0
   -6.9902  -18.9461   10.0485 C   0  0  0  0  0  0  0  0  0  0  0  0
   -6.5053  -19.8425    9.3869 O   0  0  0  0  0  0  0  0  0  0  0  0
   -8.3923  -19.0418   10.5093 C   0  0  0  0  0  0  0  0  0  0  0  0
   -9.1247  -20.1241   10.2352 N   0  0  0  0  0  0  0  0  0  0  0  0
  -10.3747  -20.2162   10.6430 C   0  0  0  0  0  0  0  0  0  0  0  0
  -11.0821  -21.3326   10.3437 O   0  0  0  0  0  0  0  0  0  0  0  0
  -10.9623  -19.2516   11.3361 N   0  0  0  0  0  0  0  0  0  0  0  0
  -10.3092  -18.1443   11.6516 C   0  0  0  0  0  0  0  0  0  0  0  0
  -10.9196  -17.1642   12.3609 O   0  0  0  0  0  0  0  0  0  0  0  0
   -8.9722  -18.0022   11.2435 C   0  0  0  0  0  0  0  0  0  0  0  0
   -8.2466  -16.8533   11.5529 N   0  0  0  0  0  0  0  0  0  0  0  0
   -8.6498  -15.6546   11.0841 C   0  0  0  0  0  0  0  0  0  0  0  0
   -9.6141  -15.5838   10.3484 O   0  0  0  0  0  0  0  0  0  0  0  0
   -7.9162  -14.4256   11.4655 C   0  0  0  0  0  0  0  0  0  0  0  0
   -6.6169  -14.4904   11.7318 N   0  0  0  0  0  0  0  0  0  0  0  0
   -5.9283  -13.4193   12.0758 C   0  0  0  0  0  0  0  0  0  0  0  0
   -4.6018  -13.5306   12.3391 O   0  0  0  0  0  0  0  0  0  0  0  0
   -6.5457  -12.1751   12.1704 C   0  0  0  0  0  0  0  0  0  0  0  0
   -7.8994  -12.0689   11.9000 C   0  0  0  0  0  0  0  0  0  0  0  0
   -8.5952  -13.2120   11.5365 C   0  0  0  0  0  0  0  0  0  0  0  0
  1  2  1  0
  2  3  2  0
  2  4  1  0
  4  5  2  0
  4 11  1  0
  5  6  1  0
  6  7  1  0
  6  8  2  0
  8  9  1  0
  9 10  1  0
  9 11  2  0
 11 12  1  0
 12 13  1  0
 13 14  2  0
 13 15  1  0
 15 16  2  0
 15 21  1  0
 16 17  1  0
 17 18  1  0
 17 19  2  0
 19 20  1  0
 20 21  2  0
M  END
>  <Gold.Gold.Protein.RotatedWaterAtoms>  (775) 


>  <Gold.Id.Protein>  (775) 


>  <Gold.PLP.Chemscore.CHOScore>  (775) 
0.0000

>  <Gold.PLP.Chemscore.Hbond>  (775) 
3.0000

>  <Gold.PLP.Chemscore.Internal.Correction>  (775) 
1.1564

>  <Gold.PLP.Chemscore.Metal>  (775) 
0.0000

>  <Gold.PLP.Fitness>  (775) 
50.2751

>  <Gold.PLP.PLP>  (775) 
-42.0238

>  <Gold.PLP.ligand.clash>  (775) 
0.0000

>  <Gold.PLP.ligand.torsion>  (775) 
0.9525

>  <Gold.PLP.part.buried>  (775) 
-9.3418

>  <Gold.PLP.part.hbond>  (775) 
-4.1601

>  <Gold.PLP.part.metal>  (775) 
0.0000

>  <Gold.PLP.part.nonpolar>  (775) 
-28.7707

>  <Gold.PLP.part.repulsive>  (775) 
0.2307

>  <Gold.Protein.RotatedAtoms>  (775) 


>  <Gold.Protein.RotatedTorsions>  (775) 


>  <Gold.Protein.RotatedWaterAtoms>  (775) 


>  <Gold.Version>  (775) 
5.3.0

>  <PLP.Chemscore.CHOScore>  (775) 


>  <PLP.Chemscore.Hbond>  (775) 


>  <PLP.Chemscore.Internal.Correction>  (775) 


>  <PLP.Chemscore.Metal>  (775) 


>  <PLP.Fitness>  (775) 


>  <PLP.PLP>  (775) 


>  <PLP.ligand.clash>  (775) 


>  <PLP.ligand.torsion>  (775) 


>  <PLP.part.buried>  (775) 


>  <PLP.part.hbond>  (775) 


>  <PLP.part.metal>  (775) 


>  <PLP.part.nonpolar>  (775) 


>  <PLP.part.repulsive>  (775) 


>  <Version>  (775) 


$$$$
3775|Compound_1128|Compounds_3D_F|sdf|379|dock10|1
     RDKit          3D

 19 20  0  0  0  0  0  0  0  0999 V2000
   -4.8179  -12.1828   13.2038 O   0  0  0  0  0  0  0  0  0  0  0  0
   -6.0501  -11.9805   12.6727 C   0  0  0  0  0  0  0  0  0  0  0  0
   -6.3732  -10.7346   12.1417 C   0  0  0  0  0  0  0  0  0  0  0  0
   -7.6311  -10.5344   11.6006 C   0  0  0  0  0  0  0  0  0  0  0  0
   -8.5318  -11.5899   11.6083 C   0  0  0  0  0  0  0  0  0  0  0  0
   -8.1438  -12.8095   12.1556 C   0  0  0  0  0  0  0  0  0  0  0  0
   -6.9251  -12.9666   12.6612 N   0  0  0  0  0  0  0  0  0  0  0  0
   -9.0957  -13.9435   12.1698 C   0  0  0  0  0  0  0  0  0  0  0  0
  -10.2891  -13.7337   12.2651 O   0  0  0  0  0  0  0  0  0  0  0  0
   -8.6389  -15.2078   12.0776 N   0  0  0  0  0  0  0  0  0  0  0  0
   -9.5357  -16.2757   12.0907 C   0  0  0  0  0  0  0  0  0  0  0  0
  -10.7550  -16.2711   12.5625 N   0  0  0  0  0  0  0  0  0  0  0  0
  -11.2846  -17.3493   12.4304 O   0  0  0  0  0  0  0  0  0  0  0  0
  -10.4690  -18.2357   11.8400 C   0  0  0  0  0  0  0  0  0  0  0  0
   -9.3098  -17.5857   11.5887 C   0  0  0  0  0  0  0  0  0  0  0  0
  -10.7845  -19.6730   11.5140 C   0  0  0  0  0  0  0  0  0  0  0  0
   -9.5423  -20.3469   10.9293 C   0  0  0  0  0  0  0  0  0  0  0  0
  -11.2093  -20.4036   12.7892 C   0  0  0  0  0  0  0  0  0  0  0  0
  -11.9227  -19.7259   10.4926 C   0  0  0  0  0  0  0  0  0  0  0  0
  1  2  1  0
  2  3  2  0
  2  7  1  0
  3  4  1  0
  4  5  2  0
  5  6  1  0
  6  7  2  0
  6  8  1  0
  8  9  2  0
  8 10  1  0
 10 11  1  0
 11 12  2  0
 11 15  1  0
 12 13  1  0
 13 14  1  0
 14 15  2  0
 14 16  1  0
 16 17  1  0
 16 18  1  0
 16 19  1  0
M  END
>  <Gold.Gold.Protein.RotatedWaterAtoms>  (776) 


>  <Gold.Id.Protein>  (776) 


>  <Gold.PLP.Chemscore.CHOScore>  (776) 
0.0000

>  <Gold.PLP.Chemscore.Hbond>  (776) 
3.5824

>  <Gold.PLP.Chemscore.Internal.Correction>  (776) 
0.0013

>  <Gold.PLP.Chemscore.Metal>  (776) 
0.0000

>  <Gold.PLP.Fitness>  (776) 
61.3864

>  <Gold.PLP.PLP>  (776) 
-51.7381

>  <Gold.PLP.ligand.clash>  (776) 
0.0000

>  <Gold.PLP.ligand.torsion>  (776) 
0.5501

>  <Gold.PLP.part.buried>  (776) 
-2.4567

>  <Gold.PLP.part.hbond>  (776) 
-8.0815

>  <Gold.PLP.part.metal>  (776) 
0.0000

>  <Gold.PLP.part.nonpolar>  (776) 
-40.2044

>  <Gold.PLP.part.repulsive>  (776) 
0.5350

>  <Gold.Protein.RotatedAtoms>  (776) 


>  <Gold.Protein.RotatedTorsions>  (776) 


>  <Gold.Protein.RotatedWaterAtoms>  (776) 


>  <Gold.Version>  (776) 
5.3.0

>  <PLP.Chemscore.CHOScore>  (776) 


>  <PLP.Chemscore.Hbond>  (776) 


>  <PLP.Chemscore.Internal.Correction>  (776) 


>  <PLP.Chemscore.Metal>  (776) 


>  <PLP.Fitness>  (776) 


>  <PLP.PLP>  (776) 


>  <PLP.ligand.clash>  (776) 


>  <PLP.ligand.torsion>  (776) 


>  <PLP.part.buried>  (776) 


>  <PLP.part.hbond>  (776) 


>  <PLP.part.metal>  (776) 


>  <PLP.part.nonpolar>  (776) 


>  <PLP.part.repulsive>  (776) 


>  <Version>  (776) 


$$$$
3776|Compound_1132|Compounds_3D_F|sdf|381|dock10|1
     RDKit          3D

 20 21  0  0  0  0  0  0  0  0999 V2000
   -4.6416  -12.2089   13.0665 O   0  0  0  0  0  0  0  0  0  0  0  0
   -5.8022  -12.6915   12.5561 C   0  0  0  0  0  0  0  0  0  0  0  0
   -6.8323  -11.8102   12.2382 C   0  0  0  0  0  0  0  0  0  0  0  0
   -8.0133  -12.3080   11.7172 C   0  0  0  0  0  0  0  0  0  0  0  0
   -8.1294  -13.6778   11.5287 C   0  0  0  0  0  0  0  0  0  0  0  0
   -7.0606  -14.5027   11.8674 C   0  0  0  0  0  0  0  0  0  0  0  0
   -5.9394  -13.9882   12.3610 N   0  0  0  0  0  0  0  0  0  0  0  0
   -7.1729  -15.9663   11.6722 C   0  0  0  0  0  0  0  0  0  0  0  0
   -6.3089  -16.7047   12.1018 O   0  0  0  0  0  0  0  0  0  0  0  0
   -8.2335  -16.4793   11.0187 N   0  0  0  0  0  0  0  0  0  0  0  0
   -8.3379  -17.8397   10.8370 C   0  0  0  0  0  0  0  0  0  0  0  0
   -9.4545  -18.6413   11.0873 C   0  0  0  0  0  0  0  0  0  0  0  0
   -9.0063  -19.9466   10.7274 C   0  0  0  0  0  0  0  0  0  0  0  0
   -7.7760  -19.8135   10.3331 N   0  0  0  0  0  0  0  0  0  0  0  0
   -7.3916  -18.6692   10.3793 O   0  0  0  0  0  0  0  0  0  0  0  0
  -10.7696  -18.2386   11.5966 C   0  0  0  0  0  0  0  0  0  0  0  0
  -10.8682  -17.2765   12.3341 O   0  0  0  0  0  0  0  0  0  0  0  0
  -11.8705  -18.9362   11.2472 O   0  0  0  0  0  0  0  0  0  0  0  0
  -13.0513  -18.7604   12.0737 C   0  0  0  0  0  0  0  0  0  0  0  0
  -13.1298  -19.8932   13.0993 C   0  0  0  0  0  0  0  0  0  0  0  0
  1  2  1  0
  2  3  2  0
  2  7  1  0
  3  4  1  0
  4  5  2  0
  5  6  1  0
  6  7  2  0
  6  8  1  0
  8  9  2  0
  8 10  1  0
 10 11  1  0
 11 12  2  0
 11 15  1  0
 12 13  1  0
 12 16  1  0
 13 14  2  0
 14 15  1  0
 16 17  2  0
 16 18  1  0
 18 19  1  0
 19 20  1  0
M  END
>  <Gold.Gold.Protein.RotatedWaterAtoms>  (777) 


>  <Gold.Id.Protein>  (777) 


>  <Gold.PLP.Chemscore.CHOScore>  (777) 
0.0000

>  <Gold.PLP.Chemscore.Hbond>  (777) 
2.9920

>  <Gold.PLP.Chemscore.Internal.Correction>  (777) 
0.0131

>  <Gold.PLP.Chemscore.Metal>  (777) 
0.0000

>  <Gold.PLP.Fitness>  (777) 
54.3091

>  <Gold.PLP.PLP>  (777) 
-47.9503

>  <Gold.PLP.ligand.clash>  (777) 
0.0000

>  <Gold.PLP.ligand.torsion>  (777) 
1.3152

>  <Gold.PLP.part.buried>  (777) 
-10.0888

>  <Gold.PLP.part.hbond>  (777) 
-4.9127

>  <Gold.PLP.part.metal>  (777) 
0.0000

>  <Gold.PLP.part.nonpolar>  (777) 
-33.6083

>  <Gold.PLP.part.repulsive>  (777) 
0.2963

>  <Gold.Protein.RotatedAtoms>  (777) 


>  <Gold.Protein.RotatedTorsions>  (777) 


>  <Gold.Protein.RotatedWaterAtoms>  (777) 


>  <Gold.Version>  (777) 
5.3.0

>  <PLP.Chemscore.CHOScore>  (777) 


>  <PLP.Chemscore.Hbond>  (777) 


>  <PLP.Chemscore.Internal.Correction>  (777) 


>  <PLP.Chemscore.Metal>  (777) 


>  <PLP.Fitness>  (777) 


>  <PLP.PLP>  (777) 


>  <PLP.ligand.clash>  (777) 


>  <PLP.ligand.torsion>  (777) 


>  <PLP.part.buried>  (777) 


>  <PLP.part.hbond>  (777) 


>  <PLP.part.metal>  (777) 


>  <PLP.part.nonpolar>  (777) 


>  <PLP.part.repulsive>  (777) 


>  <Version>  (777) 


$$$$
3777|Compound_1138|Compounds_3D_F|sdf|384|dock10|1
     RDKit          3D

 19 21  0  0  0  0  0  0  0  0999 V2000
   -4.3282  -12.1975   13.0924 O   0  0  0  0  0  0  0  0  0  0  0  0
   -5.5806  -12.1533   12.5716 C   0  0  0  0  0  0  0  0  0  0  0  0
   -6.2236  -10.9263   12.4321 C   0  0  0  0  0  0  0  0  0  0  0  0
   -7.5004  -10.8873   11.8996 C   0  0  0  0  0  0  0  0  0  0  0  0
   -8.0983  -12.0815   11.5227 C   0  0  0  0  0  0  0  0  0  0  0  0
   -7.3989  -13.2733   11.6901 C   0  0  0  0  0  0  0  0  0  0  0  0
   -6.1719  -13.2714   12.1997 N   0  0  0  0  0  0  0  0  0  0  0  0
   -8.0269  -14.5542   11.2919 C   0  0  0  0  0  0  0  0  0  0  0  0
   -9.0759  -14.5522   10.6806 O   0  0  0  0  0  0  0  0  0  0  0  0
   -7.4327  -15.7219   11.6089 N   0  0  0  0  0  0  0  0  0  0  0  0
   -8.0214  -16.9233   11.2360 C   0  0  0  0  0  0  0  0  0  0  0  0
   -7.3471  -17.8168   10.5205 N   0  0  0  0  0  0  0  0  0  0  0  0
   -7.8984  -18.9634   10.1615 C   0  0  0  0  0  0  0  0  0  0  0  0
   -9.1307  -19.2876   10.4855 N   0  0  0  0  0  0  0  0  0  0  0  0
   -9.8853  -18.4525   11.2030 C   0  0  0  0  0  0  0  0  0  0  0  0
   -9.3347  -17.2231   11.6105 C   0  0  0  0  0  0  0  0  0  0  0  0
  -10.3266  -16.5966   12.3162 N   0  0  0  0  0  0  0  0  0  0  0  0
  -11.3580  -17.3696   12.3282 N   0  0  0  0  0  0  0  0  0  0  0  0
  -11.1368  -18.4657   11.6909 N   0  0  0  0  0  0  0  0  0  0  0  0
  1  2  1  0
  2  3  2  0
  2  7  1  0
  3  4  1  0
  4  5  2  0
  5  6  1  0
  6  7  2  0
  6  8  1  0
  8  9  2  0
  8 10  1  0
 10 11  1  0
 11 12  2  0
 11 16  1  0
 12 13  1  0
 13 14  2  0
 14 15  1  0
 15 16  2  0
 15 19  1  0
 16 17  1  0
 17 18  1  0
 18 19  2  0
M  END
>  <Gold.Gold.Protein.RotatedWaterAtoms>  (778) 


>  <Gold.Id.Protein>  (778) 


>  <Gold.PLP.Chemscore.CHOScore>  (778) 
0.0000

>  <Gold.PLP.Chemscore.Hbond>  (778) 
1.9440

>  <Gold.PLP.Chemscore.Internal.Correction>  (778) 
0.3003

>  <Gold.PLP.Chemscore.Metal>  (778) 
0.0000

>  <Gold.PLP.Fitness>  (778) 
52.3357

>  <Gold.PLP.PLP>  (778) 
-47.2908

>  <Gold.PLP.ligand.clash>  (778) 
0.0000

>  <Gold.PLP.ligand.torsion>  (778) 
0.5437

>  <Gold.PLP.part.buried>  (778) 
-11.4097

>  <Gold.PLP.part.hbond>  (778) 
-6.4056

>  <Gold.PLP.part.metal>  (778) 
0.0000

>  <Gold.PLP.part.nonpolar>  (778) 
-31.3223

>  <Gold.PLP.part.repulsive>  (778) 
1.0197

>  <Gold.Protein.RotatedAtoms>  (778) 


>  <Gold.Protein.RotatedTorsions>  (778) 


>  <Gold.Protein.RotatedWaterAtoms>  (778) 


>  <Gold.Version>  (778) 
5.3.0

>  <PLP.Chemscore.CHOScore>  (778) 


>  <PLP.Chemscore.Hbond>  (778) 


>  <PLP.Chemscore.Internal.Correction>  (778) 


>  <PLP.Chemscore.Metal>  (778) 


>  <PLP.Fitness>  (778) 


>  <PLP.PLP>  (778) 


>  <PLP.ligand.clash>  (778) 


>  <PLP.ligand.torsion>  (778) 


>  <PLP.part.buried>  (778) 


>  <PLP.part.hbond>  (778) 


>  <PLP.part.metal>  (778) 


>  <PLP.part.nonpolar>  (778) 


>  <PLP.part.repulsive>  (778) 


>  <Version>  (778) 


$$$$
3778|Compound_1143|Compounds_3D_F|sdf|385|dock10|1
     RDKit          3D

 31 35  0  0  0  0  0  0  0  0999 V2000
   -8.6870   -9.6059   11.2374 O   0  0  0  0  0  0  0  0  0  0  0  0
   -7.9112  -10.6581   11.6018 C   0  0  0  0  0  0  0  0  0  0  0  0
   -6.7341  -10.4310   12.3098 C   0  0  0  0  0  0  0  0  0  0  0  0
   -5.9474  -11.5079   12.6794 C   0  0  0  0  0  0  0  0  0  0  0  0
   -6.3627  -12.7842   12.3270 C   0  0  0  0  0  0  0  0  0  0  0  0
   -7.5505  -12.9401   11.6183 C   0  0  0  0  0  0  0  0  0  0  0  0
   -8.2831  -11.8828   11.2855 N   0  0  0  0  0  0  0  0  0  0  0  0
   -8.0038  -14.2973   11.2363 C   0  0  0  0  0  0  0  0  0  0  0  0
   -9.0506  -14.4424   10.6387 O   0  0  0  0  0  0  0  0  0  0  0  0
   -7.2530  -15.3712   11.5527 N   0  0  0  0  0  0  0  0  0  0  0  0
   -7.6779  -16.6433   11.1950 C   0  0  0  0  0  0  0  0  0  0  0  0
   -6.8515  -17.4930   10.5950 N   0  0  0  0  0  0  0  0  0  0  0  0
   -7.2472  -18.7051   10.2516 C   0  0  0  0  0  0  0  0  0  0  0  0
   -8.4675  -19.1412   10.4800 N   0  0  0  0  0  0  0  0  0  0  0  0
   -9.3640  -18.3626   11.0750 C   0  0  0  0  0  0  0  0  0  0  0  0
   -8.9904  -17.0652   11.4653 C   0  0  0  0  0  0  0  0  0  0  0  0
  -10.0756  -16.4927   12.0402 N   0  0  0  0  0  0  0  0  0  0  0  0
  -11.0665  -17.3368   12.0289 C   0  0  0  0  0  0  0  0  0  0  0  0
  -10.6771  -18.5059   11.4476 N   0  0  0  0  0  0  0  0  0  0  0  0
  -11.5099  -19.6952   11.2500 C   0  0  0  0  0  0  0  0  0  0  0  0
  -12.3353  -19.5418   10.0753 O   0  0  0  0  0  0  0  0  0  0  0  0
  -13.4204  -20.4788   10.2476 C   0  0  0  0  0  0  0  0  0  0  0  0
  -14.6102  -20.0829    9.3709 C   0  0  0  0  0  0  0  0  0  0  0  0
  -14.2066  -20.0669    7.9997 O   0  0  0  0  0  0  0  0  0  0  0  0
  -13.7943  -20.3784   11.7430 C   0  0  0  0  0  0  0  0  0  0  0  0
  -14.1038  -21.6960   12.2332 O   0  0  0  0  0  0  0  0  0  0  0  0
  -13.3356  -21.7508   13.6708 P   0  0  0  0  0  0  0  0  0  0  0  0
  -14.1816  -21.0911   14.7829 O   0  0  0  0  0  0  0  0  0  0  0  0
  -12.9572  -23.2008   14.0472 O   0  0  0  0  0  0  0  0  0  0  0  0
  -12.0102  -20.8620   13.3311 O   0  0  0  0  0  0  0  0  0  0  0  0
  -12.5081  -19.8534   12.4188 C   0  0  0  0  0  0  0  0  0  0  0  0
  1  2  1  0
  2  3  2  0
  2  7  1  0
  3  4  1  0
  4  5  2  0
  5  6  1  0
  6  7  2  0
  6  8  1  0
  8  9  2  0
  8 10  1  0
 10 11  1  0
 11 12  2  0
 11 16  1  0
 12 13  1  0
 13 14  2  0
 14 15  1  0
 15 16  2  0
 15 19  1  0
 16 17  1  0
 17 18  2  0
 18 19  1  0
 19 20  1  0
 20 21  1  0
 20 31  1  0
 21 22  1  0
 22 23  1  0
 22 25  1  0
 23 24  1  0
 25 26  1  0
 25 31  1  0
 26 27  1  0
 27 28  2  0
 27 29  1  0
 27 30  1  0
 30 31  1  0
M  CHG  1  29  -1
M  END
>  <Gold.Gold.Protein.RotatedWaterAtoms>  (779) 


>  <Gold.Id.Protein>  (779) 


>  <Gold.PLP.Chemscore.CHOScore>  (779) 
0.0055

>  <Gold.PLP.Chemscore.Hbond>  (779) 
2.8050

>  <Gold.PLP.Chemscore.Internal.Correction>  (779) 
0.3322

>  <Gold.PLP.Chemscore.Metal>  (779) 
0.0000

>  <Gold.PLP.Fitness>  (779) 
67.5889

>  <Gold.PLP.PLP>  (779) 
-61.0089

>  <Gold.PLP.ligand.clash>  (779) 
0.0000

>  <Gold.PLP.ligand.torsion>  (779) 
1.0917

>  <Gold.PLP.part.buried>  (779) 
-8.8102

>  <Gold.PLP.part.hbond>  (779) 
-7.2693

>  <Gold.PLP.part.metal>  (779) 
0.0000

>  <Gold.PLP.part.nonpolar>  (779) 
-47.5662

>  <Gold.PLP.part.repulsive>  (779) 
3.0354

>  <Gold.Protein.RotatedAtoms>  (779) 


>  <Gold.Protein.RotatedTorsions>  (779) 


>  <Gold.Protein.RotatedWaterAtoms>  (779) 


>  <Gold.Version>  (779) 
5.3.0

>  <PLP.Chemscore.CHOScore>  (779) 


>  <PLP.Chemscore.Hbond>  (779) 


>  <PLP.Chemscore.Internal.Correction>  (779) 


>  <PLP.Chemscore.Metal>  (779) 


>  <PLP.Fitness>  (779) 


>  <PLP.PLP>  (779) 


>  <PLP.ligand.clash>  (779) 


>  <PLP.ligand.torsion>  (779) 


>  <PLP.part.buried>  (779) 


>  <PLP.part.hbond>  (779) 


>  <PLP.part.metal>  (779) 


>  <PLP.part.nonpolar>  (779) 


>  <PLP.part.repulsive>  (779) 


>  <Version>  (779) 


$$$$
3779|Compound_1151|Compounds_3D_F|sdf|386|dock10|1
     RDKit          3D

 27 29  0  0  0  0  0  0  0  0999 V2000
   -7.8969   -9.5666   11.4282 O   0  0  0  0  0  0  0  0  0  0  0  0
   -7.4199  -10.7996   11.7347 C   0  0  0  0  0  0  0  0  0  0  0  0
   -6.1138  -10.9354   12.1974 C   0  0  0  0  0  0  0  0  0  0  0  0
   -5.6332  -12.1951   12.5092 C   0  0  0  0  0  0  0  0  0  0  0  0
   -6.4761  -13.2853   12.3467 C   0  0  0  0  0  0  0  0  0  0  0  0
   -7.7708  -13.0786   11.8792 C   0  0  0  0  0  0  0  0  0  0  0  0
   -8.1997  -11.8535   11.5954 N   0  0  0  0  0  0  0  0  0  0  0  0
   -8.6800  -14.2336   11.7016 C   0  0  0  0  0  0  0  0  0  0  0  0
   -9.8762  -14.0963   11.8676 O   0  0  0  0  0  0  0  0  0  0  0  0
   -8.1812  -15.4368   11.3562 N   0  0  0  0  0  0  0  0  0  0  0  0
   -9.0335  -16.5181   11.1893 C   0  0  0  0  0  0  0  0  0  0  0  0
   -8.7182  -17.4456   10.2906 N   0  0  0  0  0  0  0  0  0  0  0  0
   -9.4908  -18.4987   10.0861 C   0  0  0  0  0  0  0  0  0  0  0  0
   -9.1576  -19.4354    9.1698 O   0  0  0  0  0  0  0  0  0  0  0  0
  -10.6773  -18.6226   10.8524 C   0  0  0  0  0  0  0  0  0  0  0  0
  -11.5058  -19.6541   10.7047 N   0  0  0  0  0  0  0  0  0  0  0  0
  -12.5944  -19.7240   11.4392 C   0  0  0  0  0  0  0  0  0  0  0  0
  -12.8884  -18.7284   12.3716 C   0  0  0  0  0  0  0  0  0  0  0  0
  -12.0848  -17.7008   12.5342 N   0  0  0  0  0  0  0  0  0  0  0  0
  -10.9733  -17.6099   11.7990 C   0  0  0  0  0  0  0  0  0  0  0  0
  -10.1211  -16.5857   11.9327 N   0  0  0  0  0  0  0  0  0  0  0  0
  -13.5329  -20.8919   11.2730 C   0  0  0  0  0  0  0  0  0  0  0  0
  -14.8834  -20.4340   11.3619 O   0  0  0  0  0  0  0  0  0  0  0  0
  -13.2683  -21.9190   12.3764 C   0  0  0  0  0  0  0  0  0  0  0  0
  -14.0837  -23.0721   12.1585 O   0  0  0  0  0  0  0  0  0  0  0  0
  -13.6059  -21.3039   13.7358 C   0  0  0  0  0  0  0  0  0  0  0  0
  -14.8791  -21.7844   14.1725 O   0  0  0  0  0  0  0  0  0  0  0  0
  1  2  1  0
  2  3  2  0
  2  7  1  0
  3  4  1  0
  4  5  2  0
  5  6  1  0
  6  7  2  0
  6  8  1  0
  8  9  2  0
  8 10  1  0
 10 11  1  0
 11 12  2  0
 11 21  1  0
 12 13  1  0
 13 14  1  0
 13 15  2  0
 15 16  1  0
 15 20  1  0
 16 17  2  0
 17 18  1  0
 17 22  1  0
 18 19  2  0
 19 20  1  0
 20 21  2  0
 22 23  1  0
 22 24  1  0
 24 25  1  0
 24 26  1  0
 26 27  1  0
M  END
>  <Gold.Gold.Protein.RotatedWaterAtoms>  (780) 


>  <Gold.Id.Protein>  (780) 


>  <Gold.PLP.Chemscore.CHOScore>  (780) 
0.7831

>  <Gold.PLP.Chemscore.Hbond>  (780) 
4.6400

>  <Gold.PLP.Chemscore.Internal.Correction>  (780) 
0.4466

>  <Gold.PLP.Chemscore.Metal>  (780) 
0.0000

>  <Gold.PLP.Fitness>  (780) 
71.2190

>  <Gold.PLP.PLP>  (780) 
-58.1575

>  <Gold.PLP.ligand.clash>  (780) 
0.0000

>  <Gold.PLP.ligand.torsion>  (780) 
1.8271

>  <Gold.PLP.part.buried>  (780) 
-7.7339

>  <Gold.PLP.part.hbond>  (780) 
-10.0819

>  <Gold.PLP.part.metal>  (780) 
0.0000

>  <Gold.PLP.part.nonpolar>  (780) 
-39.9657

>  <Gold.PLP.part.repulsive>  (780) 
0.4161

>  <Gold.Protein.RotatedAtoms>  (780) 


>  <Gold.Protein.RotatedTorsions>  (780) 


>  <Gold.Protein.RotatedWaterAtoms>  (780) 


>  <Gold.Version>  (780) 
5.3.0

>  <PLP.Chemscore.CHOScore>  (780) 


>  <PLP.Chemscore.Hbond>  (780) 


>  <PLP.Chemscore.Internal.Correction>  (780) 


>  <PLP.Chemscore.Metal>  (780) 


>  <PLP.Fitness>  (780) 


>  <PLP.PLP>  (780) 


>  <PLP.ligand.clash>  (780) 


>  <PLP.ligand.torsion>  (780) 


>  <PLP.part.buried>  (780) 


>  <PLP.part.hbond>  (780) 


>  <PLP.part.metal>  (780) 


>  <PLP.part.nonpolar>  (780) 


>  <PLP.part.repulsive>  (780) 


>  <Version>  (780) 


$$$$
3780|Compound_1210|Compounds_3D_F|sdf|395|dock10|1
     RDKit          3D

 18 19  0  0  0  0  0  0  0  0999 V2000
   -8.1898  -16.1022   11.5132 N   0  0  0  0  0  0  0  0  0  0  0  0
   -8.6072  -14.8789   11.8959 C   0  0  0  0  0  0  0  0  0  0  0  0
   -9.7912  -14.6683   12.0703 O   0  0  0  0  0  0  0  0  0  0  0  0
   -7.6216  -13.7919   12.1036 C   0  0  0  0  0  0  0  0  0  0  0  0
   -6.3818  -14.0893   12.4717 N   0  0  0  0  0  0  0  0  0  0  0  0
   -5.4774  -13.1542   12.6666 C   0  0  0  0  0  0  0  0  0  0  0  0
   -5.7891  -11.8151   12.4922 C   0  0  0  0  0  0  0  0  0  0  0  0
   -7.0731  -11.4612   12.1071 C   0  0  0  0  0  0  0  0  0  0  0  0
   -8.0032  -12.4672   11.9035 C   0  0  0  0  0  0  0  0  0  0  0  0
   -9.1163  -17.1233   11.3129 C   0  0  0  0  0  0  0  0  0  0  0  0
  -10.3387  -17.1441   11.7656 N   0  0  0  0  0  0  0  0  0  0  0  0
  -10.9403  -18.3542   11.3385 O   0  0  0  0  0  0  0  0  0  0  0  0
   -9.9762  -19.0682   10.5854 N   0  0  0  0  0  0  0  0  0  0  0  0
   -8.8859  -18.3540   10.5510 C   0  0  0  0  0  0  0  0  0  0  0  0
   -7.6998  -18.7056    9.9059 N   0  0  0  0  0  0  0  0  0  0  0  0
   -7.7232  -19.0897    8.6148 C   0  0  0  0  0  0  0  0  0  0  0  0
   -8.7755  -19.1289    8.0125 O   0  0  0  0  0  0  0  0  0  0  0  0
   -6.4419  -19.4702    7.9182 C   0  0  0  0  0  0  0  0  0  0  0  0
  1  2  1  0
  1 10  1  0
  2  3  2  0
  2  4  1  0
  4  5  2  0
  4  9  1  0
  5  6  1  0
  6  7  2  0
  7  8  1  0
  8  9  2  0
 10 11  2  0
 10 14  1  0
 11 12  1  0
 12 13  1  0
 13 14  2  0
 14 15  1  0
 15 16  1  0
 16 17  2  0
 16 18  1  0
M  END
>  <Gold.Gold.Protein.RotatedWaterAtoms>  (781) 


>  <Gold.Id.Protein>  (781) 


>  <Gold.PLP.Chemscore.CHOScore>  (781) 
1.0000

>  <Gold.PLP.Chemscore.Hbond>  (781) 
1.6240

>  <Gold.PLP.Chemscore.Internal.Correction>  (781) 
0.0007

>  <Gold.PLP.Chemscore.Metal>  (781) 
0.0000

>  <Gold.PLP.Fitness>  (781) 
45.2527

>  <Gold.PLP.PLP>  (781) 
-39.1295

>  <Gold.PLP.ligand.clash>  (781) 
0.0000

>  <Gold.PLP.ligand.torsion>  (781) 
0.8747

>  <Gold.PLP.part.buried>  (781) 
-10.1495

>  <Gold.PLP.part.hbond>  (781) 
-2.6678

>  <Gold.PLP.part.metal>  (781) 
0.0000

>  <Gold.PLP.part.nonpolar>  (781) 
-27.5038

>  <Gold.PLP.part.repulsive>  (781) 
0.3802

>  <Gold.Protein.RotatedAtoms>  (781) 


>  <Gold.Protein.RotatedTorsions>  (781) 


>  <Gold.Protein.RotatedWaterAtoms>  (781) 


>  <Gold.Version>  (781) 
5.3.0

>  <PLP.Chemscore.CHOScore>  (781) 


>  <PLP.Chemscore.Hbond>  (781) 


>  <PLP.Chemscore.Internal.Correction>  (781) 


>  <PLP.Chemscore.Metal>  (781) 


>  <PLP.Fitness>  (781) 


>  <PLP.PLP>  (781) 


>  <PLP.ligand.clash>  (781) 


>  <PLP.ligand.torsion>  (781) 


>  <PLP.part.buried>  (781) 


>  <PLP.part.hbond>  (781) 


>  <PLP.part.metal>  (781) 


>  <PLP.part.nonpolar>  (781) 


>  <PLP.part.repulsive>  (781) 


>  <Version>  (781) 


$$$$
3781|Compound_1217|Compounds_3D_F|sdf|399|dock10|1
     RDKit          3D

 14 15  0  0  0  0  0  0  0  0999 V2000
   -8.6471  -15.7013   12.1936 N   0  0  0  0  0  0  0  0  0  0  0  0
   -8.9006  -14.3784   12.2458 C   0  0  0  0  0  0  0  0  0  0  0  0
  -10.0473  -13.9814   12.2855 O   0  0  0  0  0  0  0  0  0  0  0  0
   -7.7794  -13.4106   12.2551 C   0  0  0  0  0  0  0  0  0  0  0  0
   -6.5655  -13.8114   12.6111 N   0  0  0  0  0  0  0  0  0  0  0  0
   -5.5438  -12.9830   12.6326 C   0  0  0  0  0  0  0  0  0  0  0  0
   -5.6994  -11.6528   12.2796 C   0  0  0  0  0  0  0  0  0  0  0  0
   -6.9506  -11.1915   11.9001 C   0  0  0  0  0  0  0  0  0  0  0  0
   -8.0071  -12.0870   11.8822 C   0  0  0  0  0  0  0  0  0  0  0  0
   -9.6965  -16.6088   12.1799 C   0  0  0  0  0  0  0  0  0  0  0  0
  -10.8986  -16.4192   12.6754 N   0  0  0  0  0  0  0  0  0  0  0  0
  -11.6287  -17.4610   12.4950 N   0  0  0  0  0  0  0  0  0  0  0  0
  -10.9592  -18.3769   11.8831 N   0  0  0  0  0  0  0  0  0  0  0  0
   -9.6754  -17.8533   11.6500 N   0  0  0  0  0  0  0  0  0  0  0  0
  1  2  1  0
  1 10  1  0
  2  3  2  0
  2  4  1  0
  4  5  2  0
  4  9  1  0
  5  6  1  0
  6  7  2  0
  7  8  1  0
  8  9  2  0
 10 11  2  0
 10 14  1  0
 11 12  1  0
 12 13  2  0
 13 14  1  0
M  END
>  <Gold.Gold.Protein.RotatedWaterAtoms>  (782) 


>  <Gold.Id.Protein>  (782) 


>  <Gold.PLP.Chemscore.CHOScore>  (782) 
1.0000

>  <Gold.PLP.Chemscore.Hbond>  (782) 
2.1899

>  <Gold.PLP.Chemscore.Internal.Correction>  (782) 
0.0001

>  <Gold.PLP.Chemscore.Metal>  (782) 
0.0000

>  <Gold.PLP.Fitness>  (782) 
45.1850

>  <Gold.PLP.PLP>  (782) 
-36.2739

>  <Gold.PLP.ligand.clash>  (782) 
0.0000

>  <Gold.PLP.ligand.torsion>  (782) 
0.3294

>  <Gold.PLP.part.buried>  (782) 
-4.7644

>  <Gold.PLP.part.hbond>  (782) 
-6.0986

>  <Gold.PLP.part.metal>  (782) 
0.0000

>  <Gold.PLP.part.nonpolar>  (782) 
-26.0343

>  <Gold.PLP.part.repulsive>  (782) 
0.6634

>  <Gold.Protein.RotatedAtoms>  (782) 


>  <Gold.Protein.RotatedTorsions>  (782) 


>  <Gold.Protein.RotatedWaterAtoms>  (782) 


>  <Gold.Version>  (782) 
5.3.0

>  <PLP.Chemscore.CHOScore>  (782) 


>  <PLP.Chemscore.Hbond>  (782) 


>  <PLP.Chemscore.Internal.Correction>  (782) 


>  <PLP.Chemscore.Metal>  (782) 


>  <PLP.Fitness>  (782) 


>  <PLP.PLP>  (782) 


>  <PLP.ligand.clash>  (782) 


>  <PLP.ligand.torsion>  (782) 


>  <PLP.part.buried>  (782) 


>  <PLP.part.hbond>  (782) 


>  <PLP.part.metal>  (782) 


>  <PLP.part.nonpolar>  (782) 


>  <PLP.part.repulsive>  (782) 


>  <Version>  (782) 


$$$$
3782|Compound_1227|Compounds_3D_F|sdf|401|dock10|1
     RDKit          3D

 20 21  0  0  0  0  0  0  0  0999 V2000
   -7.3750  -19.0819    9.7415 O   0  0  0  0  0  0  0  0  0  0  0  0
   -7.6474  -17.9932   10.4871 C   0  0  0  0  0  0  0  0  0  0  0  0
   -6.8010  -17.1351   10.6406 O   0  0  0  0  0  0  0  0  0  0  0  0
   -8.9776  -17.8413   11.1178 C   0  0  0  0  0  0  0  0  0  0  0  0
   -9.9097  -18.7859   10.9691 N   0  0  0  0  0  0  0  0  0  0  0  0
  -11.0971  -18.6571   11.5286 C   0  0  0  0  0  0  0  0  0  0  0  0
  -12.0143  -19.6392   11.3525 O   0  0  0  0  0  0  0  0  0  0  0  0
  -11.4215  -17.5993   12.2566 N   0  0  0  0  0  0  0  0  0  0  0  0
  -10.5566  -16.6170   12.4548 C   0  0  0  0  0  0  0  0  0  0  0  0
  -10.8987  -15.5396   13.2021 O   0  0  0  0  0  0  0  0  0  0  0  0
   -9.2765  -16.7105   11.8833 C   0  0  0  0  0  0  0  0  0  0  0  0
   -8.3349  -15.6995   12.0662 N   0  0  0  0  0  0  0  0  0  0  0  0
   -8.5906  -14.4522   11.6258 C   0  0  0  0  0  0  0  0  0  0  0  0
   -9.6205  -14.2203   11.0229 O   0  0  0  0  0  0  0  0  0  0  0  0
   -7.6180  -13.3634   11.8771 C   0  0  0  0  0  0  0  0  0  0  0  0
   -6.3935  -13.6582   12.2947 N   0  0  0  0  0  0  0  0  0  0  0  0
   -5.5004  -12.7219   12.5294 C   0  0  0  0  0  0  0  0  0  0  0  0
   -5.8083  -11.3830   12.3471 C   0  0  0  0  0  0  0  0  0  0  0  0
   -7.0755  -11.0303   11.9114 C   0  0  0  0  0  0  0  0  0  0  0  0
   -7.9950  -12.0378   11.6670 C   0  0  0  0  0  0  0  0  0  0  0  0
  1  2  1  0
  2  3  2  0
  2  4  1  0
  4  5  2  0
  4 11  1  0
  5  6  1  0
  6  7  1  0
  6  8  2  0
  8  9  1  0
  9 10  1  0
  9 11  2  0
 11 12  1  0
 12 13  1  0
 13 14  2  0
 13 15  1  0
 15 16  2  0
 15 20  1  0
 16 17  1  0
 17 18  2  0
 18 19  1  0
 19 20  2  0
M  END
>  <Gold.Gold.Protein.RotatedWaterAtoms>  (783) 


>  <Gold.Id.Protein>  (783) 


>  <Gold.PLP.Chemscore.CHOScore>  (783) 
1.0000

>  <Gold.PLP.Chemscore.Hbond>  (783) 
2.4700

>  <Gold.PLP.Chemscore.Internal.Correction>  (783) 
1.1553

>  <Gold.PLP.Chemscore.Metal>  (783) 
0.0000

>  <Gold.PLP.Fitness>  (783) 
54.7989

>  <Gold.PLP.PLP>  (783) 
-44.5716

>  <Gold.PLP.ligand.clash>  (783) 
0.0285

>  <Gold.PLP.ligand.torsion>  (783) 
0.6548

>  <Gold.PLP.part.buried>  (783) 
-1.1829

>  <Gold.PLP.part.hbond>  (783) 
-6.3719

>  <Gold.PLP.part.metal>  (783) 
0.0000

>  <Gold.PLP.part.nonpolar>  (783) 
-35.4271

>  <Gold.PLP.part.repulsive>  (783) 
0.4895

>  <Gold.Protein.RotatedAtoms>  (783) 


>  <Gold.Protein.RotatedTorsions>  (783) 


>  <Gold.Protein.RotatedWaterAtoms>  (783) 


>  <Gold.Version>  (783) 
5.3.0

>  <PLP.Chemscore.CHOScore>  (783) 


>  <PLP.Chemscore.Hbond>  (783) 


>  <PLP.Chemscore.Internal.Correction>  (783) 


>  <PLP.Chemscore.Metal>  (783) 


>  <PLP.Fitness>  (783) 


>  <PLP.PLP>  (783) 


>  <PLP.ligand.clash>  (783) 


>  <PLP.ligand.torsion>  (783) 


>  <PLP.part.buried>  (783) 


>  <PLP.part.hbond>  (783) 


>  <PLP.part.metal>  (783) 


>  <PLP.part.nonpolar>  (783) 


>  <PLP.part.repulsive>  (783) 


>  <Version>  (783) 


$$$$
3783|Compound_1239|Compounds_3D_F|sdf|405|dock10|1
     RDKit          3D

 18 20  0  0  0  0  0  0  0  0999 V2000
   -9.4667  -16.4530   11.6691 N   0  0  0  0  0  0  0  0  0  0  0  0
   -8.1283  -16.3128   11.5921 C   0  0  0  0  0  0  0  0  0  0  0  0
   -7.4376  -17.2548   11.2608 O   0  0  0  0  0  0  0  0  0  0  0  0
   -7.5018  -15.0093   11.9116 C   0  0  0  0  0  0  0  0  0  0  0  0
   -6.2132  -14.9563   12.2246 N   0  0  0  0  0  0  0  0  0  0  0  0
   -5.6196  -13.8188   12.5149 C   0  0  0  0  0  0  0  0  0  0  0  0
   -6.3238  -12.6252   12.5031 C   0  0  0  0  0  0  0  0  0  0  0  0
   -7.6721  -12.6353   12.1806 C   0  0  0  0  0  0  0  0  0  0  0  0
   -8.2696  -13.8467   11.8738 C   0  0  0  0  0  0  0  0  0  0  0  0
  -10.0545  -17.6749   11.3748 C   0  0  0  0  0  0  0  0  0  0  0  0
  -10.9118  -18.2391   12.2199 N   0  0  0  0  0  0  0  0  0  0  0  0
  -11.4766  -19.4016   11.9480 C   0  0  0  0  0  0  0  0  0  0  0  0
  -11.2328  -20.0657   10.8404 N   0  0  0  0  0  0  0  0  0  0  0  0
  -10.3852  -19.5785    9.9321 C   0  0  0  0  0  0  0  0  0  0  0  0
   -9.7646  -18.3392   10.1790 C   0  0  0  0  0  0  0  0  0  0  0  0
   -8.9693  -18.1073    9.0894 N   0  0  0  0  0  0  0  0  0  0  0  0
   -9.1003  -19.1008    8.2789 N   0  0  0  0  0  0  0  0  0  0  0  0
   -9.9241  -19.9796    8.7347 N   0  0  0  0  0  0  0  0  0  0  0  0
  1  2  1  0
  1 10  1  0
  2  3  2  0
  2  4  1  0
  4  5  2  0
  4  9  1  0
  5  6  1  0
  6  7  2  0
  7  8  1  0
  8  9  2  0
 10 11  2  0
 10 15  1  0
 11 12  1  0
 12 13  2  0
 13 14  1  0
 14 15  2  0
 14 18  1  0
 15 16  1  0
 16 17  1  0
 17 18  2  0
M  END
>  <Gold.Gold.Protein.RotatedWaterAtoms>  (784) 


>  <Gold.Id.Protein>  (784) 


>  <Gold.PLP.Chemscore.CHOScore>  (784) 
1.0000

>  <Gold.PLP.Chemscore.Hbond>  (784) 
1.6552

>  <Gold.PLP.Chemscore.Internal.Correction>  (784) 
0.2950

>  <Gold.PLP.Chemscore.Metal>  (784) 
0.0000

>  <Gold.PLP.Fitness>  (784) 
45.3820

>  <Gold.PLP.PLP>  (784) 
-38.3982

>  <Gold.PLP.ligand.clash>  (784) 
0.0000

>  <Gold.PLP.ligand.torsion>  (784) 
0.6384

>  <Gold.PLP.part.buried>  (784) 
-7.1738

>  <Gold.PLP.part.hbond>  (784) 
-4.0000

>  <Gold.PLP.part.metal>  (784) 
0.0000

>  <Gold.PLP.part.nonpolar>  (784) 
-27.0807

>  <Gold.PLP.part.repulsive>  (784) 
0.3366

>  <Gold.Protein.RotatedAtoms>  (784) 


>  <Gold.Protein.RotatedTorsions>  (784) 


>  <Gold.Protein.RotatedWaterAtoms>  (784) 


>  <Gold.Version>  (784) 
5.3.0

>  <PLP.Chemscore.CHOScore>  (784) 


>  <PLP.Chemscore.Hbond>  (784) 


>  <PLP.Chemscore.Internal.Correction>  (784) 


>  <PLP.Chemscore.Metal>  (784) 


>  <PLP.Fitness>  (784) 


>  <PLP.PLP>  (784) 


>  <PLP.ligand.clash>  (784) 


>  <PLP.ligand.torsion>  (784) 


>  <PLP.part.buried>  (784) 


>  <PLP.part.hbond>  (784) 


>  <PLP.part.metal>  (784) 


>  <PLP.part.nonpolar>  (784) 


>  <PLP.part.repulsive>  (784) 


>  <Version>  (784) 


$$$$
3784|Compound_1278|Compounds_3D_F|sdf|408|dock10|1
     RDKit          3D

 27 29  0  0  0  0  0  0  0  0999 V2000
   -6.7375  -19.0511   10.0861 O   0  0  0  0  0  0  0  0  0  0  0  0
   -7.7795  -18.3149   10.5419 C   0  0  0  0  0  0  0  0  0  0  0  0
   -8.9823  -18.9326   10.9164 C   0  0  0  0  0  0  0  0  0  0  0  0
   -9.4262  -20.2142   10.9468 N   0  0  0  0  0  0  0  0  0  0  0  0
  -10.6484  -20.2391   11.3901 C   0  0  0  0  0  0  0  0  0  0  0  0
  -11.0681  -18.9719   11.6730 N   0  0  0  0  0  0  0  0  0  0  0  0
  -10.0314  -18.1206   11.3829 C   0  0  0  0  0  0  0  0  0  0  0  0
   -9.8510  -16.8067   11.4519 N   0  0  0  0  0  0  0  0  0  0  0  0
   -8.6996  -16.2671   11.0873 C   0  0  0  0  0  0  0  0  0  0  0  0
   -7.6826  -16.9968   10.6473 N   0  0  0  0  0  0  0  0  0  0  0  0
   -8.5484  -14.8884   11.1732 N   0  0  0  0  0  0  0  0  0  0  0  0
   -7.4726  -14.3664   11.7945 C   0  0  0  0  0  0  0  0  0  0  0  0
   -6.6350  -15.1008   12.2798 O   0  0  0  0  0  0  0  0  0  0  0  0
   -7.3119  -12.8967   11.8856 C   0  0  0  0  0  0  0  0  0  0  0  0
   -6.1659  -12.3850   12.3173 N   0  0  0  0  0  0  0  0  0  0  0  0
   -5.9832  -11.0863   12.4120 C   0  0  0  0  0  0  0  0  0  0  0  0
   -6.9872  -10.1980   12.0613 C   0  0  0  0  0  0  0  0  0  0  0  0
   -8.2001  -10.6896   11.6056 C   0  0  0  0  0  0  0  0  0  0  0  0
   -8.3638  -12.0629   11.5116 C   0  0  0  0  0  0  0  0  0  0  0  0
  -12.3830  -18.5898   12.1922 C   0  0  0  0  0  0  0  0  0  0  0  0
  -13.1840  -19.8495   12.5297 C   0  0  0  0  0  0  0  0  0  0  0  0
  -12.6505  -20.4516   13.7098 O   0  0  0  0  0  0  0  0  0  0  0  0
  -13.0998  -21.7902   13.9345 C   0  0  0  0  0  0  0  0  0  0  0  0
  -12.1563  -22.5242   15.3102 P   0  0  0  0  0  0  0  0  0  0  0  0
  -11.3310  -23.6433   14.8013 O   0  0  0  0  0  0  0  0  0  0  0  0
  -11.1998  -21.4056   15.9625 O   0  0  0  0  0  0  0  0  0  0  0  0
  -13.1762  -23.0746   16.4267 O   0  0  0  0  0  0  0  0  0  0  0  0
  1  2  1  0
  2  3  2  0
  2 10  1  0
  3  4  1  0
  3  7  1  0
  4  5  2  0
  5  6  1  0
  6  7  1  0
  6 20  1  0
  7  8  2  0
  8  9  1  0
  9 10  2  0
  9 11  1  0
 11 12  1  0
 12 13  2  0
 12 14  1  0
 14 15  2  0
 14 19  1  0
 15 16  1  0
 16 17  2  0
 17 18  1  0
 18 19  2  0
 20 21  1  0
 21 22  1  0
 22 23  1  0
 23 24  1  0
 24 25  2  0
 24 26  1  0
 24 27  1  0
M  END
>  <Gold.Gold.Protein.RotatedWaterAtoms>  (785) 


>  <Gold.Id.Protein>  (785) 


>  <Gold.PLP.Chemscore.CHOScore>  (785) 
1.0123

>  <Gold.PLP.Chemscore.Hbond>  (785) 
0.7680

>  <Gold.PLP.Chemscore.Internal.Correction>  (785) 
0.6642

>  <Gold.PLP.Chemscore.Metal>  (785) 
0.0000

>  <Gold.PLP.Fitness>  (785) 
61.0189

>  <Gold.PLP.PLP>  (785) 
-56.3800

>  <Gold.PLP.ligand.clash>  (785) 
0.0000

>  <Gold.PLP.ligand.torsion>  (785) 
0.6832

>  <Gold.PLP.part.buried>  (785) 
-12.5578

>  <Gold.PLP.part.hbond>  (785) 
-1.6162

>  <Gold.PLP.part.metal>  (785) 
0.0000

>  <Gold.PLP.part.nonpolar>  (785) 
-44.5313

>  <Gold.PLP.part.repulsive>  (785) 
0.4865

>  <Gold.Protein.RotatedAtoms>  (785) 


>  <Gold.Protein.RotatedTorsions>  (785) 


>  <Gold.Protein.RotatedWaterAtoms>  (785) 


>  <Gold.Version>  (785) 
5.3.0

>  <PLP.Chemscore.CHOScore>  (785) 


>  <PLP.Chemscore.Hbond>  (785) 


>  <PLP.Chemscore.Internal.Correction>  (785) 


>  <PLP.Chemscore.Metal>  (785) 


>  <PLP.Fitness>  (785) 


>  <PLP.PLP>  (785) 


>  <PLP.ligand.clash>  (785) 


>  <PLP.ligand.torsion>  (785) 


>  <PLP.part.buried>  (785) 


>  <PLP.part.hbond>  (785) 


>  <PLP.part.metal>  (785) 


>  <PLP.part.nonpolar>  (785) 


>  <PLP.part.repulsive>  (785) 


>  <Version>  (785) 


$$$$
3785|Compound_1346|Compounds_3D_F|sdf|411|dock10|1
     RDKit          3D

 17 18  0  0  0  0  0  0  0  0999 V2000
  -11.7687  -18.1578   12.2293 O   0  0  0  0  0  0  0  0  0  0  0  0
  -10.5004  -18.1929   11.7542 C   0  0  0  0  0  0  0  0  0  0  0  0
  -10.0863  -19.2681   11.1033 N   0  0  0  0  0  0  0  0  0  0  0  0
   -8.8534  -19.3411   10.6238 C   0  0  0  0  0  0  0  0  0  0  0  0
   -7.9928  -18.2756   10.8099 C   0  0  0  0  0  0  0  0  0  0  0  0
   -6.0331  -18.3393   10.0707 I   0  0  0  0  0  0  0  0  0  0  0  0
   -8.4595  -17.1559   11.5003 C   0  0  0  0  0  0  0  0  0  0  0  0
   -9.7097  -17.1506   11.9492 N   0  0  0  0  0  0  0  0  0  0  0  0
   -7.6303  -16.0614   11.7119 N   0  0  0  0  0  0  0  0  0  0  0  0
   -8.1590  -14.8270   11.8285 C   0  0  0  0  0  0  0  0  0  0  0  0
   -9.3613  -14.6720   11.7492 O   0  0  0  0  0  0  0  0  0  0  0  0
   -7.2749  -13.6610   12.0531 C   0  0  0  0  0  0  0  0  0  0  0  0
   -7.7046  -12.4342   11.7724 N   0  0  0  0  0  0  0  0  0  0  0  0
   -6.9140  -11.3985   11.9736 C   0  0  0  0  0  0  0  0  0  0  0  0
   -5.6350  -11.5858   12.4765 C   0  0  0  0  0  0  0  0  0  0  0  0
   -5.2027  -12.8026   12.7567 N   0  0  0  0  0  0  0  0  0  0  0  0
   -5.9903  -13.8458   12.5632 C   0  0  0  0  0  0  0  0  0  0  0  0
  1  2  1  0
  2  3  2  0
  2  8  1  0
  3  4  1  0
  4  5  2  0
  5  6  1  0
  5  7  1  0
  7  8  2  0
  7  9  1  0
  9 10  1  0
 10 11  2  0
 10 12  1  0
 12 13  2  0
 12 17  1  0
 13 14  1  0
 14 15  2  0
 15 16  1  0
 16 17  2  0
M  END
>  <Gold.Gold.Protein.RotatedWaterAtoms>  (786) 


>  <Gold.Id.Protein>  (786) 


>  <Gold.PLP.Chemscore.CHOScore>  (786) 
1.0000

>  <Gold.PLP.Chemscore.Hbond>  (786) 
1.5920

>  <Gold.PLP.Chemscore.Internal.Correction>  (786) 
0.3303

>  <Gold.PLP.Chemscore.Metal>  (786) 
0.0000

>  <Gold.PLP.Fitness>  (786) 
45.9850

>  <Gold.PLP.PLP>  (786) 
-38.5862

>  <Gold.PLP.ligand.clash>  (786) 
0.0000

>  <Gold.PLP.ligand.torsion>  (786) 
0.3538

>  <Gold.PLP.part.buried>  (786) 
-10.0656

>  <Gold.PLP.part.hbond>  (786) 
-3.3162

>  <Gold.PLP.part.metal>  (786) 
0.0000

>  <Gold.PLP.part.nonpolar>  (786) 
-28.1854

>  <Gold.PLP.part.repulsive>  (786) 
0.7030

>  <Gold.Protein.RotatedAtoms>  (786) 


>  <Gold.Protein.RotatedTorsions>  (786) 


>  <Gold.Protein.RotatedWaterAtoms>  (786) 


>  <Gold.Version>  (786) 
5.3.0

>  <PLP.Chemscore.CHOScore>  (786) 


>  <PLP.Chemscore.Hbond>  (786) 


>  <PLP.Chemscore.Internal.Correction>  (786) 


>  <PLP.Chemscore.Metal>  (786) 


>  <PLP.Fitness>  (786) 


>  <PLP.PLP>  (786) 


>  <PLP.ligand.clash>  (786) 


>  <PLP.ligand.torsion>  (786) 


>  <PLP.part.buried>  (786) 


>  <PLP.part.hbond>  (786) 


>  <PLP.part.metal>  (786) 


>  <PLP.part.nonpolar>  (786) 


>  <PLP.part.repulsive>  (786) 


>  <Version>  (786) 


$$$$
3786|Compound_1352|Compounds_3D_F|sdf|414|dock10|1
     RDKit          3D

 26 28  0  0  0  0  0  0  0  0999 V2000
   -9.4986  -19.2842    8.5810 O   0  0  0  0  0  0  0  0  0  0  0  0
   -9.7271  -18.5135    9.6689 C   0  0  0  0  0  0  0  0  0  0  0  0
  -10.8924  -18.6969   10.4567 C   0  0  0  0  0  0  0  0  0  0  0  0
  -11.8007  -19.6250   10.1635 N   0  0  0  0  0  0  0  0  0  0  0  0
  -12.8644  -19.7563   10.9249 C   0  0  0  0  0  0  0  0  0  0  0  0
  -13.0503  -18.9332   12.0353 C   0  0  0  0  0  0  0  0  0  0  0  0
  -12.1652  -18.0100   12.3446 N   0  0  0  0  0  0  0  0  0  0  0  0
  -11.0774  -17.8590   11.5846 C   0  0  0  0  0  0  0  0  0  0  0  0
  -10.1494  -16.9336   11.8577 N   0  0  0  0  0  0  0  0  0  0  0  0
   -9.0851  -16.8057   11.0899 C   0  0  0  0  0  0  0  0  0  0  0  0
   -8.8679  -17.5749   10.0263 N   0  0  0  0  0  0  0  0  0  0  0  0
   -8.1482  -15.8345   11.4089 N   0  0  0  0  0  0  0  0  0  0  0  0
   -8.5317  -14.5502   11.5554 C   0  0  0  0  0  0  0  0  0  0  0  0
   -9.6976  -14.2445   11.4074 O   0  0  0  0  0  0  0  0  0  0  0  0
   -7.5298  -13.5132   11.8959 C   0  0  0  0  0  0  0  0  0  0  0  0
   -7.8805  -12.1645   11.8565 C   0  0  0  0  0  0  0  0  0  0  0  0
   -6.9844  -11.2426   12.1602 N   0  0  0  0  0  0  0  0  0  0  0  0
   -5.7587  -11.5983   12.5022 C   0  0  0  0  0  0  0  0  0  0  0  0
   -5.4077  -12.9410   12.5438 C   0  0  0  0  0  0  0  0  0  0  0  0
   -6.2969  -13.8667   12.2463 N   0  0  0  0  0  0  0  0  0  0  0  0
  -13.8935  -20.8057   10.5937 C   0  0  0  0  0  0  0  0  0  0  0  0
  -13.4704  -22.0688   11.1116 O   0  0  0  0  0  0  0  0  0  0  0  0
  -14.0525  -20.9042    9.0748 C   0  0  0  0  0  0  0  0  0  0  0  0
  -14.4998  -19.6482    8.5599 O   0  0  0  0  0  0  0  0  0  0  0  0
  -15.0772  -21.9885    8.7380 C   0  0  0  0  0  0  0  0  0  0  0  0
  -15.5598  -21.7912    7.4074 O   0  0  0  0  0  0  0  0  0  0  0  0
  1  2  1  0
  2  3  2  0
  2 11  1  0
  3  4  1  0
  3  8  1  0
  4  5  2  0
  5  6  1  0
  5 21  1  0
  6  7  2  0
  7  8  1  0
  8  9  2  0
  9 10  1  0
 10 11  2  0
 10 12  1  0
 12 13  1  0
 13 14  2  0
 13 15  1  0
 15 16  2  0
 15 20  1  0
 16 17  1  0
 17 18  2  0
 18 19  1  0
 19 20  2  0
 21 22  1  0
 21 23  1  0
 23 24  1  0
 23 25  1  0
 25 26  1  0
M  END
>  <Gold.Gold.Protein.RotatedWaterAtoms>  (787) 


>  <Gold.Id.Protein>  (787) 


>  <Gold.PLP.Chemscore.CHOScore>  (787) 
3.0000

>  <Gold.PLP.Chemscore.Hbond>  (787) 
3.6841

>  <Gold.PLP.Chemscore.Internal.Correction>  (787) 
0.4931

>  <Gold.PLP.Chemscore.Metal>  (787) 
0.0000

>  <Gold.PLP.Fitness>  (787) 
68.4189

>  <Gold.PLP.PLP>  (787) 
-50.5769

>  <Gold.PLP.ligand.clash>  (787) 
0.0000

>  <Gold.PLP.ligand.torsion>  (787) 
1.3517

>  <Gold.PLP.part.buried>  (787) 
-7.6637

>  <Gold.PLP.part.hbond>  (787) 
-7.3899

>  <Gold.PLP.part.metal>  (787) 
0.0000

>  <Gold.PLP.part.nonpolar>  (787) 
-36.0731

>  <Gold.PLP.part.repulsive>  (787) 
0.6355

>  <Gold.Protein.RotatedAtoms>  (787) 


>  <Gold.Protein.RotatedTorsions>  (787) 


>  <Gold.Protein.RotatedWaterAtoms>  (787) 


>  <Gold.Version>  (787) 
5.3.0

>  <PLP.Chemscore.CHOScore>  (787) 


>  <PLP.Chemscore.Hbond>  (787) 


>  <PLP.Chemscore.Internal.Correction>  (787) 


>  <PLP.Chemscore.Metal>  (787) 


>  <PLP.Fitness>  (787) 


>  <PLP.PLP>  (787) 


>  <PLP.ligand.clash>  (787) 


>  <PLP.ligand.torsion>  (787) 


>  <PLP.part.buried>  (787) 


>  <PLP.part.hbond>  (787) 


>  <PLP.part.metal>  (787) 


>  <PLP.part.nonpolar>  (787) 


>  <PLP.part.repulsive>  (787) 


>  <Version>  (787) 


$$$$
3787|Compound_1358|Compounds_3D_F|sdf|418|dock10|1
     RDKit          3D

 17 18  0  0  0  0  0  0  0  0999 V2000
  -13.8582  -19.2241   13.0433 O   0  0  0  0  0  0  0  0  0  0  0  0
  -12.9583  -19.8214   12.2380 C   0  0  0  0  0  0  0  0  0  0  0  0
  -13.1809  -20.9314   11.7961 O   0  0  0  0  0  0  0  0  0  0  0  0
  -11.7016  -19.1278   11.8933 C   0  0  0  0  0  0  0  0  0  0  0  0
  -11.3825  -17.8921   12.2225 N   0  0  0  0  0  0  0  0  0  0  0  0
  -10.1771  -17.5964   11.7460 C   0  0  0  0  0  0  0  0  0  0  0  0
   -9.7011  -18.6398   11.1003 N   0  0  0  0  0  0  0  0  0  0  0  0
  -10.6722  -19.6505   11.1865 N   0  0  0  0  0  0  0  0  0  0  0  0
   -9.5211  -16.3724   11.9052 N   0  0  0  0  0  0  0  0  0  0  0  0
   -8.1826  -16.3011   11.7543 C   0  0  0  0  0  0  0  0  0  0  0  0
   -7.5477  -17.3001   11.4805 O   0  0  0  0  0  0  0  0  0  0  0  0
   -7.4878  -15.0042   11.9221 C   0  0  0  0  0  0  0  0  0  0  0  0
   -6.1609  -14.9432   11.8494 N   0  0  0  0  0  0  0  0  0  0  0  0
   -5.5470  -13.7860   11.9989 C   0  0  0  0  0  0  0  0  0  0  0  0
   -6.2813  -12.6332   12.2319 C   0  0  0  0  0  0  0  0  0  0  0  0
   -7.5991  -12.6878   12.3042 N   0  0  0  0  0  0  0  0  0  0  0  0
   -8.2237  -13.8417   12.1507 C   0  0  0  0  0  0  0  0  0  0  0  0
  1  2  1  0
  2  3  2  0
  2  4  1  0
  4  5  2  0
  4  8  1  0
  5  6  1  0
  6  7  2  0
  6  9  1  0
  7  8  1  0
  9 10  1  0
 10 11  2  0
 10 12  1  0
 12 13  2  0
 12 17  1  0
 13 14  1  0
 14 15  2  0
 15 16  1  0
 16 17  2  0
M  END
>  <Gold.Gold.Protein.RotatedWaterAtoms>  (788) 


>  <Gold.Id.Protein>  (788) 


>  <Gold.PLP.Chemscore.CHOScore>  (788) 
1.8725

>  <Gold.PLP.Chemscore.Hbond>  (788) 
2.2020

>  <Gold.PLP.Chemscore.Internal.Correction>  (788) 
0.0001

>  <Gold.PLP.Chemscore.Metal>  (788) 
0.0000

>  <Gold.PLP.Fitness>  (788) 
44.9389

>  <Gold.PLP.PLP>  (788) 
-32.9363

>  <Gold.PLP.ligand.clash>  (788) 
0.0000

>  <Gold.PLP.ligand.torsion>  (788) 
0.1105

>  <Gold.PLP.part.buried>  (788) 
-7.5484

>  <Gold.PLP.part.hbond>  (788) 
-3.7549

>  <Gold.PLP.part.metal>  (788) 
0.0000

>  <Gold.PLP.part.nonpolar>  (788) 
-22.2143

>  <Gold.PLP.part.repulsive>  (788) 
0.4885

>  <Gold.Protein.RotatedAtoms>  (788) 


>  <Gold.Protein.RotatedTorsions>  (788) 


>  <Gold.Protein.RotatedWaterAtoms>  (788) 


>  <Gold.Version>  (788) 
5.3.0

>  <PLP.Chemscore.CHOScore>  (788) 


>  <PLP.Chemscore.Hbond>  (788) 


>  <PLP.Chemscore.Internal.Correction>  (788) 


>  <PLP.Chemscore.Metal>  (788) 


>  <PLP.Fitness>  (788) 


>  <PLP.PLP>  (788) 


>  <PLP.ligand.clash>  (788) 


>  <PLP.ligand.torsion>  (788) 


>  <PLP.part.buried>  (788) 


>  <PLP.part.hbond>  (788) 


>  <PLP.part.metal>  (788) 


>  <PLP.part.nonpolar>  (788) 


>  <PLP.part.repulsive>  (788) 


>  <Version>  (788) 


$$$$
3788|Compound_1359|Compounds_3D_F|sdf|419|dock10|1
     RDKit          3D

 19 21  0  0  0  0  0  0  0  0999 V2000
  -11.5858  -18.5735   12.2917 O   0  0  0  0  0  0  0  0  0  0  0  0
  -10.3822  -18.1603   11.8305 C   0  0  0  0  0  0  0  0  0  0  0  0
   -9.5114  -19.0617   11.1874 C   0  0  0  0  0  0  0  0  0  0  0  0
   -9.5773  -20.3698   10.8829 N   0  0  0  0  0  0  0  0  0  0  0  0
   -8.5006  -20.7380   10.2805 N   0  0  0  0  0  0  0  0  0  0  0  0
   -7.6377  -19.6389   10.1545 N   0  0  0  0  0  0  0  0  0  0  0  0
   -8.2746  -18.5740   10.7287 C   0  0  0  0  0  0  0  0  0  0  0  0
   -7.9722  -17.2934   10.9147 N   0  0  0  0  0  0  0  0  0  0  0  0
   -8.8220  -16.4836   11.5237 C   0  0  0  0  0  0  0  0  0  0  0  0
  -10.0006  -16.8986   11.9683 N   0  0  0  0  0  0  0  0  0  0  0  0
   -8.4697  -15.1519   11.6998 N   0  0  0  0  0  0  0  0  0  0  0  0
   -7.1798  -14.8174   11.8991 C   0  0  0  0  0  0  0  0  0  0  0  0
   -6.3252  -15.6809   11.9241 O   0  0  0  0  0  0  0  0  0  0  0  0
   -6.8034  -13.3978   12.0863 C   0  0  0  0  0  0  0  0  0  0  0  0
   -7.7118  -12.4398   11.9237 N   0  0  0  0  0  0  0  0  0  0  0  0
   -7.3735  -11.1770   12.0908 C   0  0  0  0  0  0  0  0  0  0  0  0
   -6.0717  -10.8452   12.4391 C   0  0  0  0  0  0  0  0  0  0  0  0
   -5.1661  -11.7924   12.6030 N   0  0  0  0  0  0  0  0  0  0  0  0
   -5.4978  -13.0605   12.4415 C   0  0  0  0  0  0  0  0  0  0  0  0
  1  2  1  0
  2  3  2  0
  2 10  1  0
  3  4  1  0
  3  7  1  0
  4  5  2  0
  5  6  1  0
  6  7  1  0
  7  8  2  0
  8  9  1  0
  9 10  2  0
  9 11  1  0
 11 12  1  0
 12 13  2  0
 12 14  1  0
 14 15  2  0
 14 19  1  0
 15 16  1  0
 16 17  2  0
 17 18  1  0
 18 19  2  0
M  END
>  <Gold.Gold.Protein.RotatedWaterAtoms>  (789) 


>  <Gold.Id.Protein>  (789) 


>  <Gold.PLP.Chemscore.CHOScore>  (789) 
1.3929

>  <Gold.PLP.Chemscore.Hbond>  (789) 
1.9000

>  <Gold.PLP.Chemscore.Internal.Correction>  (789) 
0.4125

>  <Gold.PLP.Chemscore.Metal>  (789) 
0.0000

>  <Gold.PLP.Fitness>  (789) 
47.2987

>  <Gold.PLP.PLP>  (789) 
-37.4968

>  <Gold.PLP.ligand.clash>  (789) 
0.0000

>  <Gold.PLP.ligand.torsion>  (789) 
0.2446

>  <Gold.PLP.part.buried>  (789) 
-11.4910

>  <Gold.PLP.part.hbond>  (789) 
-2.0000

>  <Gold.PLP.part.metal>  (789) 
0.0000

>  <Gold.PLP.part.nonpolar>  (789) 
-27.1204

>  <Gold.PLP.part.repulsive>  (789) 
1.2129

>  <Gold.Protein.RotatedAtoms>  (789) 


>  <Gold.Protein.RotatedTorsions>  (789) 


>  <Gold.Protein.RotatedWaterAtoms>  (789) 


>  <Gold.Version>  (789) 
5.3.0

>  <PLP.Chemscore.CHOScore>  (789) 


>  <PLP.Chemscore.Hbond>  (789) 


>  <PLP.Chemscore.Internal.Correction>  (789) 


>  <PLP.Chemscore.Metal>  (789) 


>  <PLP.Fitness>  (789) 


>  <PLP.PLP>  (789) 


>  <PLP.ligand.clash>  (789) 


>  <PLP.ligand.torsion>  (789) 


>  <PLP.part.buried>  (789) 


>  <PLP.part.hbond>  (789) 


>  <PLP.part.metal>  (789) 


>  <PLP.part.nonpolar>  (789) 


>  <PLP.part.repulsive>  (789) 


>  <Version>  (789) 


$$$$
3789|Compound_1368|Compounds_3D_F|sdf|421|dock10|1
     RDKit          3D

 18 19  0  0  0  0  0  0  0  0999 V2000
   -8.0638  -16.3049   11.6511 N   0  0  0  0  0  0  0  0  0  0  0  0
   -8.4941  -15.0394   11.8259 C   0  0  0  0  0  0  0  0  0  0  0  0
   -9.6823  -14.7898   11.7766 O   0  0  0  0  0  0  0  0  0  0  0  0
   -7.5188  -13.9544   12.0782 C   0  0  0  0  0  0  0  0  0  0  0  0
   -6.2820  -14.2462   12.4713 N   0  0  0  0  0  0  0  0  0  0  0  0
   -5.4167  -13.2777   12.6951 C   0  0  0  0  0  0  0  0  0  0  0  0
   -5.7927  -11.9542   12.5189 C   0  0  0  0  0  0  0  0  0  0  0  0
   -7.0193  -11.6577   12.1277 N   0  0  0  0  0  0  0  0  0  0  0  0
   -7.8912  -12.6223   11.8975 C   0  0  0  0  0  0  0  0  0  0  0  0
   -8.9757  -17.3205   11.4100 C   0  0  0  0  0  0  0  0  0  0  0  0
   -8.7021  -18.5954   11.2821 N   0  0  0  0  0  0  0  0  0  0  0  0
   -9.7907  -19.2455   11.0670 N   0  0  0  0  0  0  0  0  0  0  0  0
  -10.7950  -18.4169   11.0490 C   0  0  0  0  0  0  0  0  0  0  0  0
  -10.3066  -17.1818   11.2711 O   0  0  0  0  0  0  0  0  0  0  0  0
  -12.2410  -18.7766   10.8262 C   0  0  0  0  0  0  0  0  0  0  0  0
  -13.0120  -18.2906   11.8869 F   0  0  0  0  0  0  0  0  0  0  0  0
  -12.6842  -18.2061    9.6280 F   0  0  0  0  0  0  0  0  0  0  0  0
  -12.3697  -20.1676   10.7544 F   0  0  0  0  0  0  0  0  0  0  0  0
  1  2  1  0
  1 10  1  0
  2  3  2  0
  2  4  1  0
  4  5  2  0
  4  9  1  0
  5  6  1  0
  6  7  2  0
  7  8  1  0
  8  9  2  0
 10 11  2  0
 10 14  1  0
 11 12  1  0
 12 13  2  0
 13 14  1  0
 13 15  1  0
 15 16  1  0
 15 17  1  0
 15 18  1  0
M  END
>  <Gold.Gold.Protein.RotatedWaterAtoms>  (790) 


>  <Gold.Id.Protein>  (790) 


>  <Gold.PLP.Chemscore.CHOScore>  (790) 
1.7170

>  <Gold.PLP.Chemscore.Hbond>  (790) 
1.0000

>  <Gold.PLP.Chemscore.Internal.Correction>  (790) 
0.0003

>  <Gold.PLP.Chemscore.Metal>  (790) 
0.0000

>  <Gold.PLP.Fitness>  (790) 
48.4393

>  <Gold.PLP.PLP>  (790) 
-40.7338

>  <Gold.PLP.ligand.clash>  (790) 
0.0000

>  <Gold.PLP.ligand.torsion>  (790) 
0.2229

>  <Gold.PLP.part.buried>  (790) 
-10.3772

>  <Gold.PLP.part.hbond>  (790) 
-1.2402

>  <Gold.PLP.part.metal>  (790) 
0.0000

>  <Gold.PLP.part.nonpolar>  (790) 
-30.5772

>  <Gold.PLP.part.repulsive>  (790) 
0.5301

>  <Gold.Protein.RotatedAtoms>  (790) 


>  <Gold.Protein.RotatedTorsions>  (790) 


>  <Gold.Protein.RotatedWaterAtoms>  (790) 


>  <Gold.Version>  (790) 
5.3.0

>  <PLP.Chemscore.CHOScore>  (790) 


>  <PLP.Chemscore.Hbond>  (790) 


>  <PLP.Chemscore.Internal.Correction>  (790) 


>  <PLP.Chemscore.Metal>  (790) 


>  <PLP.Fitness>  (790) 


>  <PLP.PLP>  (790) 


>  <PLP.ligand.clash>  (790) 


>  <PLP.ligand.torsion>  (790) 


>  <PLP.part.buried>  (790) 


>  <PLP.part.hbond>  (790) 


>  <PLP.part.metal>  (790) 


>  <PLP.part.nonpolar>  (790) 


>  <PLP.part.repulsive>  (790) 


>  <Version>  (790) 


$$$$
3790|Compound_1405|Compounds_3D_F|sdf|425|dock10|1
     RDKit          3D

 19 20  0  0  0  0  0  0  0  0999 V2000
   -8.7727   -9.4059   11.0809 O   0  0  0  0  0  0  0  0  0  0  0  0
   -8.0354  -10.4544   11.5196 C   0  0  0  0  0  0  0  0  0  0  0  0
   -6.7883  -10.2458   11.9101 N   0  0  0  0  0  0  0  0  0  0  0  0
   -6.0348  -11.2450   12.3452 C   0  0  0  0  0  0  0  0  0  0  0  0
   -6.5652  -12.5207   12.3889 C   0  0  0  0  0  0  0  0  0  0  0  0
   -5.4168  -14.1358   13.0695 I   0  0  0  0  0  0  0  0  0  0  0  0
   -7.8835  -12.7080   11.9704 C   0  0  0  0  0  0  0  0  0  0  0  0
   -8.5815  -11.6587   11.5504 N   0  0  0  0  0  0  0  0  0  0  0  0
   -8.4589  -13.9725   11.9971 N   0  0  0  0  0  0  0  0  0  0  0  0
   -7.9028  -14.9816   11.2975 C   0  0  0  0  0  0  0  0  0  0  0  0
   -6.8981  -14.7847   10.6435 O   0  0  0  0  0  0  0  0  0  0  0  0
   -8.5165  -16.3318   11.3263 C   0  0  0  0  0  0  0  0  0  0  0  0
   -9.7358  -16.5090   11.8341 N   0  0  0  0  0  0  0  0  0  0  0  0
  -10.2887  -17.7087   11.8625 C   0  0  0  0  0  0  0  0  0  0  0  0
  -11.5303  -17.8483   12.3867 O   0  0  0  0  0  0  0  0  0  0  0  0
   -9.6642  -18.7769   11.3943 N   0  0  0  0  0  0  0  0  0  0  0  0
   -8.4480  -18.6809   10.8736 C   0  0  0  0  0  0  0  0  0  0  0  0
   -7.8167  -19.7815   10.3955 O   0  0  0  0  0  0  0  0  0  0  0  0
   -7.8300  -17.4314   10.8190 C   0  0  0  0  0  0  0  0  0  0  0  0
  1  2  1  0
  2  3  2  0
  2  8  1  0
  3  4  1  0
  4  5  2  0
  5  6  1  0
  5  7  1  0
  7  8  2  0
  7  9  1  0
  9 10  1  0
 10 11  2  0
 10 12  1  0
 12 13  2  0
 12 19  1  0
 13 14  1  0
 14 15  1  0
 14 16  2  0
 16 17  1  0
 17 18  1  0
 17 19  2  0
M  END
>  <Gold.Gold.Protein.RotatedWaterAtoms>  (791) 


>  <Gold.Id.Protein>  (791) 


>  <Gold.PLP.Chemscore.CHOScore>  (791) 
0.8338

>  <Gold.PLP.Chemscore.Hbond>  (791) 
2.5776

>  <Gold.PLP.Chemscore.Internal.Correction>  (791) 
0.3299

>  <Gold.PLP.Chemscore.Metal>  (791) 
0.0000

>  <Gold.PLP.Fitness>  (791) 
53.5839

>  <Gold.PLP.PLP>  (791) 
-44.2409

>  <Gold.PLP.ligand.clash>  (791) 
0.0000

>  <Gold.PLP.ligand.torsion>  (791) 
0.6106

>  <Gold.PLP.part.buried>  (791) 
-9.7712

>  <Gold.PLP.part.hbond>  (791) 
-4.6627

>  <Gold.PLP.part.metal>  (791) 
0.0000

>  <Gold.PLP.part.nonpolar>  (791) 
-32.7829

>  <Gold.PLP.part.repulsive>  (791) 
0.7884

>  <Gold.Protein.RotatedAtoms>  (791) 


>  <Gold.Protein.RotatedTorsions>  (791) 


>  <Gold.Protein.RotatedWaterAtoms>  (791) 


>  <Gold.Version>  (791) 
5.3.0

>  <PLP.Chemscore.CHOScore>  (791) 


>  <PLP.Chemscore.Hbond>  (791) 


>  <PLP.Chemscore.Internal.Correction>  (791) 


>  <PLP.Chemscore.Metal>  (791) 


>  <PLP.Fitness>  (791) 


>  <PLP.PLP>  (791) 


>  <PLP.ligand.clash>  (791) 


>  <PLP.ligand.torsion>  (791) 


>  <PLP.part.buried>  (791) 


>  <PLP.part.hbond>  (791) 


>  <PLP.part.metal>  (791) 


>  <PLP.part.nonpolar>  (791) 


>  <PLP.part.repulsive>  (791) 


>  <Version>  (791) 


$$$$
3791|Compound_1406|Compounds_3D_F|sdf|426|dock10|1
     RDKit          3D

 22 23  0  0  0  0  0  0  0  0999 V2000
   -7.9017  -13.8366   11.7433 O   0  0  0  0  0  0  0  0  0  0  0  0
   -8.4137  -14.9752   11.2385 C   0  0  0  0  0  0  0  0  0  0  0  0
   -9.3488  -15.5192   11.7917 O   0  0  0  0  0  0  0  0  0  0  0  0
   -7.8371  -15.5648   10.0102 C   0  0  0  0  0  0  0  0  0  0  0  0
   -6.7890  -14.9947    9.4109 N   0  0  0  0  0  0  0  0  0  0  0  0
   -6.2694  -15.5151    8.3170 C   0  0  0  0  0  0  0  0  0  0  0  0
   -5.2053  -14.9047    7.7413 O   0  0  0  0  0  0  0  0  0  0  0  0
   -6.7548  -16.6161    7.7616 N   0  0  0  0  0  0  0  0  0  0  0  0
   -7.7923  -17.2456    8.2903 C   0  0  0  0  0  0  0  0  0  0  0  0
   -8.2805  -18.3709    7.7144 O   0  0  0  0  0  0  0  0  0  0  0  0
   -8.3772  -16.7318    9.4600 C   0  0  0  0  0  0  0  0  0  0  0  0
   -9.4712  -17.3615   10.0505 N   0  0  0  0  0  0  0  0  0  0  0  0
   -9.2993  -18.5122   10.7328 C   0  0  0  0  0  0  0  0  0  0  0  0
   -8.2003  -19.0274   10.7870 O   0  0  0  0  0  0  0  0  0  0  0  0
  -10.4519  -19.1483   11.4165 C   0  0  0  0  0  0  0  0  0  0  0  0
  -10.3552  -20.3902   11.8916 N   0  0  0  0  0  0  0  0  0  0  0  0
  -11.3782  -20.9624   12.5020 C   0  0  0  0  0  0  0  0  0  0  0  0
  -11.2411  -22.2255   12.9703 O   0  0  0  0  0  0  0  0  0  0  0  0
  -12.5316  -20.3357   12.6680 N   0  0  0  0  0  0  0  0  0  0  0  0
  -12.7053  -19.0989   12.2229 C   0  0  0  0  0  0  0  0  0  0  0  0
  -13.8900  -18.4652   12.3986 O   0  0  0  0  0  0  0  0  0  0  0  0
  -11.6478  -18.4550   11.5770 C   0  0  0  0  0  0  0  0  0  0  0  0
  1  2  1  0
  2  3  2  0
  2  4  1  0
  4  5  2  0
  4 11  1  0
  5  6  1  0
  6  7  1  0
  6  8  2  0
  8  9  1  0
  9 10  1  0
  9 11  2  0
 11 12  1  0
 12 13  1  0
 13 14  2  0
 13 15  1  0
 15 16  2  0
 15 22  1  0
 16 17  1  0
 17 18  1  0
 17 19  2  0
 19 20  1  0
 20 21  1  0
 20 22  2  0
M  END
>  <Gold.Gold.Protein.RotatedWaterAtoms>  (792) 


>  <Gold.Id.Protein>  (792) 


>  <Gold.PLP.Chemscore.CHOScore>  (792) 
0.0000

>  <Gold.PLP.Chemscore.Hbond>  (792) 
3.2637

>  <Gold.PLP.Chemscore.Internal.Correction>  (792) 
1.1564

>  <Gold.PLP.Chemscore.Metal>  (792) 
0.0000

>  <Gold.PLP.Fitness>  (792) 
41.7345

>  <Gold.PLP.PLP>  (792) 
-32.3038

>  <Gold.PLP.ligand.clash>  (792) 
0.0000

>  <Gold.PLP.ligand.torsion>  (792) 
0.7583

>  <Gold.PLP.part.buried>  (792) 
-5.7239

>  <Gold.PLP.part.hbond>  (792) 
-6.7511

>  <Gold.PLP.part.metal>  (792) 
0.0000

>  <Gold.PLP.part.nonpolar>  (792) 
-18.8276

>  <Gold.PLP.part.repulsive>  (792) 
0.4528

>  <Gold.Protein.RotatedAtoms>  (792) 


>  <Gold.Protein.RotatedTorsions>  (792) 


>  <Gold.Protein.RotatedWaterAtoms>  (792) 


>  <Gold.Version>  (792) 
5.3.0

>  <PLP.Chemscore.CHOScore>  (792) 


>  <PLP.Chemscore.Hbond>  (792) 


>  <PLP.Chemscore.Internal.Correction>  (792) 


>  <PLP.Chemscore.Metal>  (792) 


>  <PLP.Fitness>  (792) 


>  <PLP.PLP>  (792) 


>  <PLP.ligand.clash>  (792) 


>  <PLP.ligand.torsion>  (792) 


>  <PLP.part.buried>  (792) 


>  <PLP.part.hbond>  (792) 


>  <PLP.part.metal>  (792) 


>  <PLP.part.nonpolar>  (792) 


>  <PLP.part.repulsive>  (792) 


>  <Version>  (792) 


$$$$
3792|Compound_1411|Compounds_3D_F|sdf|430|dock10|1
     RDKit          3D

 20 21  0  0  0  0  0  0  0  0999 V2000
   -7.8415   -9.5257   11.0279 O   0  0  0  0  0  0  0  0  0  0  0  0
   -7.5046  -10.7098   11.5936 C   0  0  0  0  0  0  0  0  0  0  0  0
   -6.2953  -10.8529   12.1123 N   0  0  0  0  0  0  0  0  0  0  0  0
   -5.9268  -11.9959   12.6761 C   0  0  0  0  0  0  0  0  0  0  0  0
   -4.6873  -12.1326   13.2055 O   0  0  0  0  0  0  0  0  0  0  0  0
   -6.8340  -13.0558   12.7155 C   0  0  0  0  0  0  0  0  0  0  0  0
   -8.0960  -12.8669   12.1585 C   0  0  0  0  0  0  0  0  0  0  0  0
   -8.3928  -11.6864   11.6152 N   0  0  0  0  0  0  0  0  0  0  0  0
   -9.0974  -13.9612   12.1742 C   0  0  0  0  0  0  0  0  0  0  0  0
  -10.2806  -13.7007   12.2638 O   0  0  0  0  0  0  0  0  0  0  0  0
   -8.6948  -15.2449   12.0885 N   0  0  0  0  0  0  0  0  0  0  0  0
   -9.6367  -16.2732   12.1031 C   0  0  0  0  0  0  0  0  0  0  0  0
  -10.8202  -16.2445   12.6572 N   0  0  0  0  0  0  0  0  0  0  0  0
  -11.4074  -17.2897   12.5013 O   0  0  0  0  0  0  0  0  0  0  0  0
  -10.6753  -18.1716   11.8067 C   0  0  0  0  0  0  0  0  0  0  0  0
   -9.5055  -17.5587   11.5133 C   0  0  0  0  0  0  0  0  0  0  0  0
  -11.0774  -19.5728   11.4224 C   0  0  0  0  0  0  0  0  0  0  0  0
  -10.0285  -20.5624   11.9311 C   0  0  0  0  0  0  0  0  0  0  0  0
  -12.4356  -19.9024   12.0460 C   0  0  0  0  0  0  0  0  0  0  0  0
  -11.1783  -19.6742    9.8985 C   0  0  0  0  0  0  0  0  0  0  0  0
  1  2  1  0
  2  3  2  0
  2  8  1  0
  3  4  1  0
  4  5  1  0
  4  6  2  0
  6  7  1  0
  7  8  2  0
  7  9  1  0
  9 10  2  0
  9 11  1  0
 11 12  1  0
 12 13  2  0
 12 16  1  0
 13 14  1  0
 14 15  1  0
 15 16  2  0
 15 17  1  0
 17 18  1  0
 17 19  1  0
 17 20  1  0
M  END
>  <Gold.Gold.Protein.RotatedWaterAtoms>  (793) 


>  <Gold.Id.Protein>  (793) 


>  <Gold.PLP.Chemscore.CHOScore>  (793) 
0.0000

>  <Gold.PLP.Chemscore.Hbond>  (793) 
4.4776

>  <Gold.PLP.Chemscore.Internal.Correction>  (793) 
0.0010

>  <Gold.PLP.Chemscore.Metal>  (793) 
0.0000

>  <Gold.PLP.Fitness>  (793) 
62.4624

>  <Gold.PLP.PLP>  (793) 
-50.3259

>  <Gold.PLP.ligand.clash>  (793) 
0.0000

>  <Gold.PLP.ligand.torsion>  (793) 
0.6487

>  <Gold.PLP.part.buried>  (793) 
-1.8582

>  <Gold.PLP.part.hbond>  (793) 
-11.9268

>  <Gold.PLP.part.metal>  (793) 
0.0000

>  <Gold.PLP.part.nonpolar>  (793) 
-36.4077

>  <Gold.PLP.part.repulsive>  (793) 
0.8511

>  <Gold.Protein.RotatedAtoms>  (793) 


>  <Gold.Protein.RotatedTorsions>  (793) 


>  <Gold.Protein.RotatedWaterAtoms>  (793) 


>  <Gold.Version>  (793) 
5.3.0

>  <PLP.Chemscore.CHOScore>  (793) 


>  <PLP.Chemscore.Hbond>  (793) 


>  <PLP.Chemscore.Internal.Correction>  (793) 


>  <PLP.Chemscore.Metal>  (793) 


>  <PLP.Fitness>  (793) 


>  <PLP.PLP>  (793) 


>  <PLP.ligand.clash>  (793) 


>  <PLP.ligand.torsion>  (793) 


>  <PLP.part.buried>  (793) 


>  <PLP.part.hbond>  (793) 


>  <PLP.part.metal>  (793) 


>  <PLP.part.nonpolar>  (793) 


>  <PLP.part.repulsive>  (793) 


>  <Version>  (793) 


$$$$
3793|Compound_1415|Compounds_3D_F|sdf|431|dock10|1
     RDKit          3D

 20 21  0  0  0  0  0  0  0  0999 V2000
   -8.9757  -11.6174   11.2354 O   0  0  0  0  0  0  0  0  0  0  0  0
   -8.0525  -12.5393   11.6006 C   0  0  0  0  0  0  0  0  0  0  0  0
   -6.9459  -12.1360   12.2045 N   0  0  0  0  0  0  0  0  0  0  0  0
   -6.0179  -13.0071   12.5788 C   0  0  0  0  0  0  0  0  0  0  0  0
   -4.8890  -12.5850   13.1974 O   0  0  0  0  0  0  0  0  0  0  0  0
   -6.2209  -14.3645   12.3257 C   0  0  0  0  0  0  0  0  0  0  0  0
   -7.3970  -14.7495   11.6877 C   0  0  0  0  0  0  0  0  0  0  0  0
   -8.2840  -13.8143   11.3477 N   0  0  0  0  0  0  0  0  0  0  0  0
   -7.6617  -16.1795   11.3953 C   0  0  0  0  0  0  0  0  0  0  0  0
   -6.7499  -16.9822   11.4136 O   0  0  0  0  0  0  0  0  0  0  0  0
   -8.9140  -16.5888   11.1095 N   0  0  0  0  0  0  0  0  0  0  0  0
   -9.1622  -17.9321   10.8355 C   0  0  0  0  0  0  0  0  0  0  0  0
   -8.3183  -18.9135   10.9968 N   0  0  0  0  0  0  0  0  0  0  0  0
   -8.9642  -20.1111   10.6025 O   0  0  0  0  0  0  0  0  0  0  0  0
  -10.2751  -19.7739   10.1855 N   0  0  0  0  0  0  0  0  0  0  0  0
  -10.4184  -18.4845   10.3200 C   0  0  0  0  0  0  0  0  0  0  0  0
  -11.5672  -17.7557   10.0171 N   0  0  0  0  0  0  0  0  0  0  0  0
  -12.6561  -18.3842    9.5297 C   0  0  0  0  0  0  0  0  0  0  0  0
  -12.6355  -19.5837    9.3542 O   0  0  0  0  0  0  0  0  0  0  0  0
  -13.8975  -17.5951    9.2023 C   0  0  0  0  0  0  0  0  0  0  0  0
  1  2  1  0
  2  3  2  0
  2  8  1  0
  3  4  1  0
  4  5  1  0
  4  6  2  0
  6  7  1  0
  7  8  2  0
  7  9  1  0
  9 10  2  0
  9 11  1  0
 11 12  1  0
 12 13  2  0
 12 16  1  0
 13 14  1  0
 14 15  1  0
 15 16  2  0
 16 17  1  0
 17 18  1  0
 18 19  2  0
 18 20  1  0
M  END
>  <Gold.Gold.Protein.RotatedWaterAtoms>  (794) 


>  <Gold.Id.Protein>  (794) 


>  <Gold.PLP.Chemscore.CHOScore>  (794) 
0.0000

>  <Gold.PLP.Chemscore.Hbond>  (794) 
2.1300

>  <Gold.PLP.Chemscore.Internal.Correction>  (794) 
0.0019

>  <Gold.PLP.Chemscore.Metal>  (794) 
0.0000

>  <Gold.PLP.Fitness>  (794) 
45.3979

>  <Gold.PLP.PLP>  (794) 
-39.3105

>  <Gold.PLP.ligand.clash>  (794) 
0.0000

>  <Gold.PLP.ligand.torsion>  (794) 
0.1523

>  <Gold.PLP.part.buried>  (794) 
-8.1343

>  <Gold.PLP.part.hbond>  (794) 
-5.8510

>  <Gold.PLP.part.metal>  (794) 
0.0000

>  <Gold.PLP.part.nonpolar>  (794) 
-26.2202

>  <Gold.PLP.part.repulsive>  (794) 
0.3668

>  <Gold.Protein.RotatedAtoms>  (794) 


>  <Gold.Protein.RotatedTorsions>  (794) 


>  <Gold.Protein.RotatedWaterAtoms>  (794) 


>  <Gold.Version>  (794) 
5.3.0

>  <PLP.Chemscore.CHOScore>  (794) 


>  <PLP.Chemscore.Hbond>  (794) 


>  <PLP.Chemscore.Internal.Correction>  (794) 


>  <PLP.Chemscore.Metal>  (794) 


>  <PLP.Fitness>  (794) 


>  <PLP.PLP>  (794) 


>  <PLP.ligand.clash>  (794) 


>  <PLP.ligand.torsion>  (794) 


>  <PLP.part.buried>  (794) 


>  <PLP.part.hbond>  (794) 


>  <PLP.part.metal>  (794) 


>  <PLP.part.nonpolar>  (794) 


>  <PLP.part.repulsive>  (794) 


>  <Version>  (794) 


$$$$
3794|Compound_1416|Compounds_3D_F|sdf|432|dock10|1
     RDKit          3D

 21 22  0  0  0  0  0  0  0  0999 V2000
   -8.7816   -9.3020   11.0021 O   0  0  0  0  0  0  0  0  0  0  0  0
   -8.1164  -10.4127   11.4016 C   0  0  0  0  0  0  0  0  0  0  0  0
   -6.8471  -10.3067   11.7613 N   0  0  0  0  0  0  0  0  0  0  0  0
   -6.1608  -11.3700   12.1596 C   0  0  0  0  0  0  0  0  0  0  0  0
   -4.8623  -11.2516   12.5270 O   0  0  0  0  0  0  0  0  0  0  0  0
   -6.7955  -12.6125   12.1941 C   0  0  0  0  0  0  0  0  0  0  0  0
   -8.1312  -12.6836   11.8074 C   0  0  0  0  0  0  0  0  0  0  0  0
   -8.7537  -11.5687   11.4249 N   0  0  0  0  0  0  0  0  0  0  0  0
   -8.8524  -13.9800   11.8267 C   0  0  0  0  0  0  0  0  0  0  0  0
  -10.0442  -14.0091   12.0610 O   0  0  0  0  0  0  0  0  0  0  0  0
   -8.1852  -15.1262   11.5846 N   0  0  0  0  0  0  0  0  0  0  0  0
   -8.8536  -16.3286   11.6031 C   0  0  0  0  0  0  0  0  0  0  0  0
   -8.3314  -17.5905   11.3049 C   0  0  0  0  0  0  0  0  0  0  0  0
   -9.4496  -18.4564   11.4837 C   0  0  0  0  0  0  0  0  0  0  0  0
  -10.4436  -17.7005   11.8386 N   0  0  0  0  0  0  0  0  0  0  0  0
  -10.1405  -16.5352   11.9164 O   0  0  0  0  0  0  0  0  0  0  0  0
   -6.9643  -17.9378   10.9041 C   0  0  0  0  0  0  0  0  0  0  0  0
   -6.6977  -19.0766   10.5711 O   0  0  0  0  0  0  0  0  0  0  0  0
   -6.0012  -16.9931   10.9037 O   0  0  0  0  0  0  0  0  0  0  0  0
   -4.7022  -17.3758   10.3798 C   0  0  0  0  0  0  0  0  0  0  0  0
   -3.7343  -17.6128   11.5409 C   0  0  0  0  0  0  0  0  0  0  0  0
  1  2  1  0
  2  3  2  0
  2  8  1  0
  3  4  1  0
  4  5  1  0
  4  6  2  0
  6  7  1  0
  7  8  2  0
  7  9  1  0
  9 10  2  0
  9 11  1  0
 11 12  1  0
 12 13  2  0
 12 16  1  0
 13 14  1  0
 13 17  1  0
 14 15  2  0
 15 16  1  0
 17 18  2  0
 17 19  1  0
 19 20  1  0
 20 21  1  0
M  END
>  <Gold.Gold.Protein.RotatedWaterAtoms>  (795) 


>  <Gold.Id.Protein>  (795) 


>  <Gold.PLP.Chemscore.CHOScore>  (795) 
0.0000

>  <Gold.PLP.Chemscore.Hbond>  (795) 
3.3169

>  <Gold.PLP.Chemscore.Internal.Correction>  (795) 
0.0148

>  <Gold.PLP.Chemscore.Metal>  (795) 
0.0000

>  <Gold.PLP.Fitness>  (795) 
56.5175

>  <Gold.PLP.PLP>  (795) 
-48.0828

>  <Gold.PLP.ligand.clash>  (795) 
0.0000

>  <Gold.PLP.ligand.torsion>  (795) 
0.7655

>  <Gold.PLP.part.buried>  (795) 
-9.8293

>  <Gold.PLP.part.hbond>  (795) 
-4.8887

>  <Gold.PLP.part.metal>  (795) 
0.0000

>  <Gold.PLP.part.nonpolar>  (795) 
-34.5965

>  <Gold.PLP.part.repulsive>  (795) 
1.6682

>  <Gold.Protein.RotatedAtoms>  (795) 


>  <Gold.Protein.RotatedTorsions>  (795) 


>  <Gold.Protein.RotatedWaterAtoms>  (795) 


>  <Gold.Version>  (795) 
5.3.0

>  <PLP.Chemscore.CHOScore>  (795) 


>  <PLP.Chemscore.Hbond>  (795) 


>  <PLP.Chemscore.Internal.Correction>  (795) 


>  <PLP.Chemscore.Metal>  (795) 


>  <PLP.Fitness>  (795) 


>  <PLP.PLP>  (795) 


>  <PLP.ligand.clash>  (795) 


>  <PLP.ligand.torsion>  (795) 


>  <PLP.part.buried>  (795) 


>  <PLP.part.hbond>  (795) 


>  <PLP.part.metal>  (795) 


>  <PLP.part.nonpolar>  (795) 


>  <PLP.part.repulsive>  (795) 


>  <Version>  (795) 


$$$$
3795|Compound_1421|Compounds_3D_F|sdf|434|dock10|1
     RDKit          3D

 20 22  0  0  0  0  0  0  0  0999 V2000
   -4.3442  -12.2336   13.0912 O   0  0  0  0  0  0  0  0  0  0  0  0
   -5.5148  -12.6260   12.5332 C   0  0  0  0  0  0  0  0  0  0  0  0
   -6.3986  -11.7060   12.1807 N   0  0  0  0  0  0  0  0  0  0  0  0
   -7.5561  -12.0488   11.6304 C   0  0  0  0  0  0  0  0  0  0  0  0
   -8.4540  -11.1000   11.2716 O   0  0  0  0  0  0  0  0  0  0  0  0
   -7.8359  -13.4009   11.4268 C   0  0  0  0  0  0  0  0  0  0  0  0
   -6.8815  -14.3388   11.8117 C   0  0  0  0  0  0  0  0  0  0  0  0
   -5.7397  -13.9145   12.3530 N   0  0  0  0  0  0  0  0  0  0  0  0
   -7.1292  -15.7884   11.6164 C   0  0  0  0  0  0  0  0  0  0  0  0
   -6.3027  -16.6008   11.9809 O   0  0  0  0  0  0  0  0  0  0  0  0
   -8.2716  -16.2046   11.0339 N   0  0  0  0  0  0  0  0  0  0  0  0
   -8.5031  -17.5612   10.8499 C   0  0  0  0  0  0  0  0  0  0  0  0
   -7.5017  -18.3904   10.5795 N   0  0  0  0  0  0  0  0  0  0  0  0
   -7.7119  -19.6839   10.4041 C   0  0  0  0  0  0  0  0  0  0  0  0
   -8.9080  -20.2236   10.4849 N   0  0  0  0  0  0  0  0  0  0  0  0
   -9.9747  -19.4676   10.7530 C   0  0  0  0  0  0  0  0  0  0  0  0
   -9.7943  -18.0865   10.9527 C   0  0  0  0  0  0  0  0  0  0  0  0
  -11.0447  -17.5890   11.2045 N   0  0  0  0  0  0  0  0  0  0  0  0
  -11.8812  -18.5687   11.1607 N   0  0  0  0  0  0  0  0  0  0  0  0
  -11.2924  -19.6844   10.9037 N   0  0  0  0  0  0  0  0  0  0  0  0
  1  2  1  0
  2  3  2  0
  2  8  1  0
  3  4  1  0
  4  5  1  0
  4  6  2  0
  6  7  1  0
  7  8  2  0
  7  9  1  0
  9 10  2  0
  9 11  1  0
 11 12  1  0
 12 13  2  0
 12 17  1  0
 13 14  1  0
 14 15  2  0
 15 16  1  0
 16 17  2  0
 16 20  1  0
 17 18  1  0
 18 19  1  0
 19 20  2  0
M  END
>  <Gold.Gold.Protein.RotatedWaterAtoms>  (796) 


>  <Gold.Id.Protein>  (796) 


>  <Gold.PLP.Chemscore.CHOScore>  (796) 
0.0000

>  <Gold.PLP.Chemscore.Hbond>  (796) 
2.0000

>  <Gold.PLP.Chemscore.Internal.Correction>  (796) 
0.3008

>  <Gold.PLP.Chemscore.Metal>  (796) 
0.0000

>  <Gold.PLP.Fitness>  (796) 
43.9320

>  <Gold.PLP.PLP>  (796) 
-38.1176

>  <Gold.PLP.ligand.clash>  (796) 
0.0000

>  <Gold.PLP.ligand.torsion>  (796) 
0.2432

>  <Gold.PLP.part.buried>  (796) 
-10.7825

>  <Gold.PLP.part.hbond>  (796) 
-4.4867

>  <Gold.PLP.part.metal>  (796) 
0.0000

>  <Gold.PLP.part.nonpolar>  (796) 
-22.8912

>  <Gold.PLP.part.repulsive>  (796) 
0.5846

>  <Gold.Protein.RotatedAtoms>  (796) 


>  <Gold.Protein.RotatedTorsions>  (796) 


>  <Gold.Protein.RotatedWaterAtoms>  (796) 


>  <Gold.Version>  (796) 
5.3.0

>  <PLP.Chemscore.CHOScore>  (796) 


>  <PLP.Chemscore.Hbond>  (796) 


>  <PLP.Chemscore.Internal.Correction>  (796) 


>  <PLP.Chemscore.Metal>  (796) 


>  <PLP.Fitness>  (796) 


>  <PLP.PLP>  (796) 


>  <PLP.ligand.clash>  (796) 


>  <PLP.ligand.torsion>  (796) 


>  <PLP.part.buried>  (796) 


>  <PLP.part.hbond>  (796) 


>  <PLP.part.metal>  (796) 


>  <PLP.part.nonpolar>  (796) 


>  <PLP.part.repulsive>  (796) 


>  <Version>  (796) 


$$$$
3796|Compound_1425|Compounds_3D_F|sdf|436|dock10|1
     RDKit          3D

 16 17  0  0  0  0  0  0  0  0999 V2000
  -14.0305  -18.3009   12.7650 O   0  0  0  0  0  0  0  0  0  0  0  0
  -12.8435  -18.6657   12.2233 C   0  0  0  0  0  0  0  0  0  0  0  0
  -12.7426  -19.8459   11.6327 N   0  0  0  0  0  0  0  0  0  0  0  0
  -11.5984  -20.2402   11.0892 C   0  0  0  0  0  0  0  0  0  0  0  0
  -11.5050  -21.4494   10.4857 O   0  0  0  0  0  0  0  0  0  0  0  0
  -10.4919  -19.3916   11.1485 C   0  0  0  0  0  0  0  0  0  0  0  0
  -10.6372  -18.1587   11.7790 C   0  0  0  0  0  0  0  0  0  0  0  0
  -11.8218  -17.8327   12.2960 N   0  0  0  0  0  0  0  0  0  0  0  0
   -9.4924  -17.2197   11.8695 C   0  0  0  0  0  0  0  0  0  0  0  0
   -9.6798  -16.0622   12.1875 O   0  0  0  0  0  0  0  0  0  0  0  0
   -8.2439  -17.6505   11.5992 N   0  0  0  0  0  0  0  0  0  0  0  0
   -7.1717  -16.7701   11.6843 C   0  0  0  0  0  0  0  0  0  0  0  0
   -7.1493  -15.4452   11.6321 N   0  0  0  0  0  0  0  0  0  0  0  0
   -6.0733  -14.7952   11.7273 N   0  0  0  0  0  0  0  0  0  0  0  0
   -4.9060  -15.3871   11.8847 C   0  0  0  0  0  0  0  0  0  0  0  0
   -5.4259  -17.1000   11.9031 S   0  0  0  0  0  0  0  0  0  0  0  0
  1  2  1  0
  2  3  2  0
  2  8  1  0
  3  4  1  0
  4  5  1  0
  4  6  2  0
  6  7  1  0
  7  8  2  0
  7  9  1  0
  9 10  2  0
  9 11  1  0
 11 12  1  0
 12 13  2  0
 12 16  1  0
 13 14  1  0
 14 15  2  0
 15 16  1  0
M  END
>  <Gold.Gold.Protein.RotatedWaterAtoms>  (797) 


>  <Gold.Id.Protein>  (797) 


>  <Gold.PLP.Chemscore.CHOScore>  (797) 
1.6228

>  <Gold.PLP.Chemscore.Hbond>  (797) 
2.7440

>  <Gold.PLP.Chemscore.Internal.Correction>  (797) 
0.0000

>  <Gold.PLP.Chemscore.Metal>  (797) 
0.0000

>  <Gold.PLP.Fitness>  (797) 
38.7910

>  <Gold.PLP.PLP>  (797) 
-26.0649

>  <Gold.PLP.ligand.clash>  (797) 
0.0000

>  <Gold.PLP.ligand.torsion>  (797) 
0.1871

>  <Gold.PLP.part.buried>  (797) 
-3.3149

>  <Gold.PLP.part.hbond>  (797) 
-4.0000

>  <Gold.PLP.part.metal>  (797) 
0.0000

>  <Gold.PLP.part.nonpolar>  (797) 
-18.4897

>  <Gold.PLP.part.repulsive>  (797) 
0.4020

>  <Gold.Protein.RotatedAtoms>  (797) 


>  <Gold.Protein.RotatedTorsions>  (797) 


>  <Gold.Protein.RotatedWaterAtoms>  (797) 


>  <Gold.Version>  (797) 
5.3.0

>  <PLP.Chemscore.CHOScore>  (797) 


>  <PLP.Chemscore.Hbond>  (797) 


>  <PLP.Chemscore.Internal.Correction>  (797) 


>  <PLP.Chemscore.Metal>  (797) 


>  <PLP.Fitness>  (797) 


>  <PLP.PLP>  (797) 


>  <PLP.ligand.clash>  (797) 


>  <PLP.ligand.torsion>  (797) 


>  <PLP.part.buried>  (797) 


>  <PLP.part.hbond>  (797) 


>  <PLP.part.metal>  (797) 


>  <PLP.part.nonpolar>  (797) 


>  <PLP.part.repulsive>  (797) 


>  <Version>  (797) 


$$$$
3797|Compound_1429|Compounds_3D_F|sdf|437|dock10|1
     RDKit          3D

 31 34  0  0  0  0  0  0  0  0999 V2000
  -11.5269  -24.0547   14.6366 O   0  0  0  0  0  0  0  0  0  0  0  0
  -11.7942  -22.8051   14.1867 C   0  0  0  0  0  0  0  0  0  0  0  0
  -10.9625  -22.2416   13.3289 N   0  0  0  0  0  0  0  0  0  0  0  0
  -11.1908  -21.0129   12.8642 C   0  0  0  0  0  0  0  0  0  0  0  0
  -12.3225  -20.3281   13.2950 C   0  0  0  0  0  0  0  0  0  0  0  0
  -13.1753  -20.9600   14.2022 C   0  0  0  0  0  0  0  0  0  0  0  0
  -14.2895  -20.3322   14.6501 O   0  0  0  0  0  0  0  0  0  0  0  0
  -12.8831  -22.1856   14.6150 N   0  0  0  0  0  0  0  0  0  0  0  0
  -10.2526  -20.3865   11.9012 C   0  0  0  0  0  0  0  0  0  0  0  0
   -9.4955  -21.0802   11.2511 O   0  0  0  0  0  0  0  0  0  0  0  0
  -10.2395  -19.0479   11.7454 N   0  0  0  0  0  0  0  0  0  0  0  0
   -9.3613  -18.4615   10.8431 C   0  0  0  0  0  0  0  0  0  0  0  0
   -8.6701  -17.4001   11.2232 N   0  0  0  0  0  0  0  0  0  0  0  0
   -7.8207  -16.8125   10.3879 C   0  0  0  0  0  0  0  0  0  0  0  0
   -7.6642  -17.3348    9.0917 C   0  0  0  0  0  0  0  0  0  0  0  0
   -8.4187  -18.4638    8.7332 C   0  0  0  0  0  0  0  0  0  0  0  0
   -8.3062  -19.0066    7.4980 O   0  0  0  0  0  0  0  0  0  0  0  0
   -9.2402  -18.9886    9.6318 N   0  0  0  0  0  0  0  0  0  0  0  0
   -6.7527  -16.5586    8.4567 N   0  0  0  0  0  0  0  0  0  0  0  0
   -6.3493  -15.6180    9.2596 C   0  0  0  0  0  0  0  0  0  0  0  0
   -6.9795  -15.7321   10.4637 N   0  0  0  0  0  0  0  0  0  0  0  0
   -6.7930  -14.8586   11.6252 C   0  0  0  0  0  0  0  0  0  0  0  0
   -7.5762  -13.6535   11.4799 O   0  0  0  0  0  0  0  0  0  0  0  0
   -6.9641  -12.6932   12.3672 C   0  0  0  0  0  0  0  0  0  0  0  0
   -7.3462  -11.2698   11.9562 C   0  0  0  0  0  0  0  0  0  0  0  0
   -6.3976  -10.3472   12.4962 O   0  0  0  0  0  0  0  0  0  0  0  0
   -5.4435  -12.9133   12.2000 C   0  0  0  0  0  0  0  0  0  0  0  0
   -4.7740  -12.7561   13.4529 O   0  0  0  0  0  0  0  0  0  0  0  0
   -5.3279  -14.3733   11.7019 C   0  0  0  0  0  0  0  0  0  0  0  0
   -4.5832  -15.1619   12.6328 O   0  0  0  0  0  0  0  0  0  0  0  0
   -6.2913  -16.7504    7.0781 C   0  0  0  0  0  0  0  0  0  0  0  0
  1  2  1  0
  2  3  2  0
  2  8  1  0
  3  4  1  0
  4  5  2  0
  4  9  1  0
  5  6  1  0
  6  7  1  0
  6  8  2  0
  9 10  2  0
  9 11  1  0
 11 12  1  0
 12 13  2  0
 12 18  1  0
 13 14  1  0
 14 15  2  0
 14 21  1  0
 15 16  1  0
 15 19  1  0
 16 17  1  0
 16 18  2  0
 19 20  2  0
 19 31  1  0
 20 21  1  0
 21 22  1  0
 22 23  1  0
 22 29  1  0
 23 24  1  0
 24 25  1  0
 24 27  1  0
 25 26  1  0
 27 28  1  0
 27 29  1  0
 29 30  1  0
M  CHG  2  17  -1  19   1
M  END
>  <Gold.Gold.Protein.RotatedWaterAtoms>  (798) 


>  <Gold.Id.Protein>  (798) 


>  <Gold.PLP.Chemscore.CHOScore>  (798) 
0.5964

>  <Gold.PLP.Chemscore.Hbond>  (798) 
4.9913

>  <Gold.PLP.Chemscore.Internal.Correction>  (798) 
0.4373

>  <Gold.PLP.Chemscore.Metal>  (798) 
0.0000

>  <Gold.PLP.Fitness>  (798) 
60.9470

>  <Gold.PLP.PLP>  (798) 
-46.5231

>  <Gold.PLP.ligand.clash>  (798) 
0.0000

>  <Gold.PLP.ligand.torsion>  (798) 
1.3882

>  <Gold.PLP.part.buried>  (798) 
-5.2517

>  <Gold.PLP.part.hbond>  (798) 
-6.0701

>  <Gold.PLP.part.metal>  (798) 
0.0000

>  <Gold.PLP.part.nonpolar>  (798) 
-36.6953

>  <Gold.PLP.part.repulsive>  (798) 
0.2401

>  <Gold.Protein.RotatedAtoms>  (798) 


>  <Gold.Protein.RotatedTorsions>  (798) 


>  <Gold.Protein.RotatedWaterAtoms>  (798) 


>  <Gold.Version>  (798) 
5.3.0

>  <PLP.Chemscore.CHOScore>  (798) 


>  <PLP.Chemscore.Hbond>  (798) 


>  <PLP.Chemscore.Internal.Correction>  (798) 


>  <PLP.Chemscore.Metal>  (798) 


>  <PLP.Fitness>  (798) 


>  <PLP.PLP>  (798) 


>  <PLP.ligand.clash>  (798) 


>  <PLP.ligand.torsion>  (798) 


>  <PLP.part.buried>  (798) 


>  <PLP.part.hbond>  (798) 


>  <PLP.part.metal>  (798) 


>  <PLP.part.nonpolar>  (798) 


>  <PLP.part.repulsive>  (798) 


>  <Version>  (798) 


$$$$
3798|Compound_1430|Compounds_3D_F|sdf|438|dock10|1
     RDKit          3D

 30 33  0  0  0  0  0  0  0  0999 V2000
  -11.2292  -22.2470   16.3627 O   0  0  0  0  0  0  0  0  0  0  0  0
  -11.8370  -21.7697   15.2499 C   0  0  0  0  0  0  0  0  0  0  0  0
  -11.1224  -21.0895   14.3715 N   0  0  0  0  0  0  0  0  0  0  0  0
  -11.6849  -20.6030   13.2648 C   0  0  0  0  0  0  0  0  0  0  0  0
  -13.0408  -20.8228   13.0444 C   0  0  0  0  0  0  0  0  0  0  0  0
  -13.7594  -21.5466   13.9982 C   0  0  0  0  0  0  0  0  0  0  0  0
  -15.0822  -21.7861   13.8259 O   0  0  0  0  0  0  0  0  0  0  0  0
  -13.1281  -22.0023   15.0714 N   0  0  0  0  0  0  0  0  0  0  0  0
  -10.8763  -19.8402   12.2828 C   0  0  0  0  0  0  0  0  0  0  0  0
  -10.9407  -18.6270   12.2538 O   0  0  0  0  0  0  0  0  0  0  0  0
  -10.0688  -20.4916   11.4226 N   0  0  0  0  0  0  0  0  0  0  0  0
   -9.3112  -19.7771   10.5036 C   0  0  0  0  0  0  0  0  0  0  0  0
   -8.7098  -18.6672   10.8976 N   0  0  0  0  0  0  0  0  0  0  0  0
   -7.9771  -17.9576   10.0460 C   0  0  0  0  0  0  0  0  0  0  0  0
   -7.8478  -18.4020    8.7187 C   0  0  0  0  0  0  0  0  0  0  0  0
   -7.0594  -17.5080    8.0737 N   0  0  0  0  0  0  0  0  0  0  0  0
   -6.7049  -16.5674    8.9000 C   0  0  0  0  0  0  0  0  0  0  0  0
   -7.2468  -16.7995   10.1302 N   0  0  0  0  0  0  0  0  0  0  0  0
   -7.0784  -15.9648   11.3227 C   0  0  0  0  0  0  0  0  0  0  0  0
   -8.3302  -15.3400   11.6805 O   0  0  0  0  0  0  0  0  0  0  0  0
   -7.9699  -14.2086   12.5017 C   0  0  0  0  0  0  0  0  0  0  0  0
   -9.1086  -13.1871   12.5296 C   0  0  0  0  0  0  0  0  0  0  0  0
  -10.3000  -13.8145   13.0084 O   0  0  0  0  0  0  0  0  0  0  0  0
   -6.7215  -13.6068   11.8196 C   0  0  0  0  0  0  0  0  0  0  0  0
   -5.7936  -13.1350   12.7986 O   0  0  0  0  0  0  0  0  0  0  0  0
   -6.1190  -14.7903   11.0268 C   0  0  0  0  0  0  0  0  0  0  0  0
   -4.8012  -15.0862   11.4932 O   0  0  0  0  0  0  0  0  0  0  0  0
   -8.5045  -19.5861    8.3464 C   0  0  0  0  0  0  0  0  0  0  0  0
   -8.4124  -20.0588    7.0811 O   0  0  0  0  0  0  0  0  0  0  0  0
   -9.2105  -20.2343    9.2624 N   0  0  0  0  0  0  0  0  0  0  0  0
  1  2  1  0
  2  3  2  0
  2  8  1  0
  3  4  1  0
  4  5  2  0
  4  9  1  0
  5  6  1  0
  6  7  1  0
  6  8  2  0
  9 10  2  0
  9 11  1  0
 11 12  1  0
 12 13  2  0
 12 30  1  0
 13 14  1  0
 14 15  2  0
 14 18  1  0
 15 16  1  0
 15 28  1  0
 16 17  2  0
 17 18  1  0
 18 19  1  0
 19 20  1  0
 19 26  1  0
 20 21  1  0
 21 22  1  0
 21 24  1  0
 22 23  1  0
 24 25  1  0
 24 26  1  0
 26 27  1  0
 28 29  1  0
 28 30  2  0
M  END
>  <Gold.Gold.Protein.RotatedWaterAtoms>  (799) 


>  <Gold.Id.Protein>  (799) 


>  <Gold.PLP.Chemscore.CHOScore>  (799) 
0.0000

>  <Gold.PLP.Chemscore.Hbond>  (799) 
5.7782

>  <Gold.PLP.Chemscore.Internal.Correction>  (799) 
0.4376

>  <Gold.PLP.Chemscore.Metal>  (799) 
0.0000

>  <Gold.PLP.Fitness>  (799) 
62.3104

>  <Gold.PLP.PLP>  (799) 
-48.2455

>  <Gold.PLP.ligand.clash>  (799) 
0.0000

>  <Gold.PLP.ligand.torsion>  (799) 
1.8537

>  <Gold.PLP.part.buried>  (799) 
-7.5123

>  <Gold.PLP.part.hbond>  (799) 
-9.3509

>  <Gold.PLP.part.metal>  (799) 
0.0000

>  <Gold.PLP.part.nonpolar>  (799) 
-30.7760

>  <Gold.PLP.part.repulsive>  (799) 
0.2680

>  <Gold.Protein.RotatedAtoms>  (799) 


>  <Gold.Protein.RotatedTorsions>  (799) 


>  <Gold.Protein.RotatedWaterAtoms>  (799) 


>  <Gold.Version>  (799) 
5.3.0

>  <PLP.Chemscore.CHOScore>  (799) 


>  <PLP.Chemscore.Hbond>  (799) 


>  <PLP.Chemscore.Internal.Correction>  (799) 


>  <PLP.Chemscore.Metal>  (799) 


>  <PLP.Fitness>  (799) 


>  <PLP.PLP>  (799) 


>  <PLP.ligand.clash>  (799) 


>  <PLP.ligand.torsion>  (799) 


>  <PLP.part.buried>  (799) 


>  <PLP.part.hbond>  (799) 


>  <PLP.part.metal>  (799) 


>  <PLP.part.nonpolar>  (799) 


>  <PLP.part.repulsive>  (799) 


>  <Version>  (799) 


$$$$
3799|Compound_1447|Compounds_3D_F|sdf|443|dock10|1
     RDKit          3D

 30 34  0  0  0  0  0  0  0  0999 V2000
  -14.1814  -19.9744    7.9952 O   0  0  0  0  0  0  0  0  0  0  0  0
  -14.3507  -19.7626    9.3979 C   0  0  0  0  0  0  0  0  0  0  0  0
  -13.1886  -20.4068   10.1554 C   0  0  0  0  0  0  0  0  0  0  0  0
  -11.9532  -19.7110    9.8795 O   0  0  0  0  0  0  0  0  0  0  0  0
  -11.0533  -20.0083   10.9601 C   0  0  0  0  0  0  0  0  0  0  0  0
  -10.1977  -18.8505   11.2284 N   0  0  0  0  0  0  0  0  0  0  0  0
  -10.5870  -17.6757   11.7989 C   0  0  0  0  0  0  0  0  0  0  0  0
   -9.5713  -16.8658   11.8881 N   0  0  0  0  0  0  0  0  0  0  0  0
   -8.4688  -17.4692   11.3817 C   0  0  0  0  0  0  0  0  0  0  0  0
   -8.8564  -18.7518   10.9577 C   0  0  0  0  0  0  0  0  0  0  0  0
   -7.9467  -19.5557   10.4174 N   0  0  0  0  0  0  0  0  0  0  0  0
   -6.6993  -19.1582   10.2795 C   0  0  0  0  0  0  0  0  0  0  0  0
   -6.2884  -17.9639   10.6623 N   0  0  0  0  0  0  0  0  0  0  0  0
   -7.1250  -17.0933   11.2165 C   0  0  0  0  0  0  0  0  0  0  0  0
   -6.6850  -15.8393   11.6152 N   0  0  0  0  0  0  0  0  0  0  0  0
   -7.3627  -14.7365   11.2378 C   0  0  0  0  0  0  0  0  0  0  0  0
   -8.3583  -14.8406   10.5493 O   0  0  0  0  0  0  0  0  0  0  0  0
   -6.8921  -13.3937   11.6638 C   0  0  0  0  0  0  0  0  0  0  0  0
   -7.7137  -12.3602   11.5645 N   0  0  0  0  0  0  0  0  0  0  0  0
   -7.3280  -11.1518   11.9348 C   0  0  0  0  0  0  0  0  0  0  0  0
   -6.0443  -10.9752   12.4330 C   0  0  0  0  0  0  0  0  0  0  0  0
   -5.2106  -12.0811   12.5227 C   0  0  0  0  0  0  0  0  0  0  0  0
   -5.6628  -13.2611   12.1396 N   0  0  0  0  0  0  0  0  0  0  0  0
  -11.9126  -20.3287   12.2008 C   0  0  0  0  0  0  0  0  0  0  0  0
  -11.6717  -21.7096   12.5634 O   0  0  0  0  0  0  0  0  0  0  0  0
  -13.1208  -22.1655   13.1586 P   0  0  0  0  0  0  0  0  0  0  0  0
  -13.2700  -21.7410   14.6371 O   0  0  0  0  0  0  0  0  0  0  0  0
  -13.3318  -23.6878   12.9974 O   0  0  0  0  0  0  0  0  0  0  0  0
  -14.1397  -21.3297   12.2054 O   0  0  0  0  0  0  0  0  0  0  0  0
  -13.3709  -20.2354   11.6823 C   0  0  0  0  0  0  0  0  0  0  0  0
  1  2  1  0
  2  3  1  0
  3  4  1  0
  3 30  1  0
  4  5  1  0
  5  6  1  0
  5 24  1  0
  6  7  1  0
  6 10  1  0
  7  8  2  0
  8  9  1  0
  9 10  2  0
  9 14  1  0
 10 11  1  0
 11 12  2  0
 12 13  1  0
 13 14  2  0
 14 15  1  0
 15 16  1  0
 16 17  2  0
 16 18  1  0
 18 19  2  0
 18 23  1  0
 19 20  1  0
 20 21  2  0
 21 22  1  0
 22 23  2  0
 24 25  1  0
 24 30  1  0
 25 26  1  0
 26 27  2  0
 26 28  1  0
 26 29  1  0
 29 30  1  0
M  CHG  1  28  -1
M  END
>  <Gold.Gold.Protein.RotatedWaterAtoms>  (800) 


>  <Gold.Id.Protein>  (800) 


>  <Gold.PLP.Chemscore.CHOScore>  (800) 
1.5032

>  <Gold.PLP.Chemscore.Hbond>  (800) 
2.7040

>  <Gold.PLP.Chemscore.Internal.Correction>  (800) 
0.3166

>  <Gold.PLP.Chemscore.Metal>  (800) 
0.0000

>  <Gold.PLP.Fitness>  (800) 
63.9545

>  <Gold.PLP.PLP>  (800) 
-52.6671

>  <Gold.PLP.ligand.clash>  (800) 
0.0000

>  <Gold.PLP.ligand.torsion>  (800) 
0.8254

>  <Gold.PLP.part.buried>  (800) 
-10.2907

>  <Gold.PLP.part.hbond>  (800) 
-3.7412

>  <Gold.PLP.part.metal>  (800) 
0.0000

>  <Gold.PLP.part.nonpolar>  (800) 
-40.7208

>  <Gold.PLP.part.repulsive>  (800) 
1.1913

>  <Gold.Protein.RotatedAtoms>  (800) 


>  <Gold.Protein.RotatedTorsions>  (800) 


>  <Gold.Protein.RotatedWaterAtoms>  (800) 


>  <Gold.Version>  (800) 
5.3.0

>  <PLP.Chemscore.CHOScore>  (800) 


>  <PLP.Chemscore.Hbond>  (800) 


>  <PLP.Chemscore.Internal.Correction>  (800) 


>  <PLP.Chemscore.Metal>  (800) 


>  <PLP.Fitness>  (800) 


>  <PLP.PLP>  (800) 


>  <PLP.ligand.clash>  (800) 


>  <PLP.ligand.torsion>  (800) 


>  <PLP.part.buried>  (800) 


>  <PLP.part.hbond>  (800) 


>  <PLP.part.metal>  (800) 


>  <PLP.part.nonpolar>  (800) 


>  <PLP.part.repulsive>  (800) 


>  <Version>  (800) 


$$$$
3800|Compound_1460|Compounds_3D_F|sdf|446|dock10|1
     RDKit          3D

 18 19  0  0  0  0  0  0  0  0999 V2000
   -8.5808  -16.6128   11.1033 N   0  0  0  0  0  0  0  0  0  0  0  0
   -7.3775  -16.2992   11.6238 C   0  0  0  0  0  0  0  0  0  0  0  0
   -6.5659  -17.1743   11.8462 O   0  0  0  0  0  0  0  0  0  0  0  0
   -7.0451  -14.8834   11.9246 C   0  0  0  0  0  0  0  0  0  0  0  0
   -5.8369  -14.5863   12.3785 N   0  0  0  0  0  0  0  0  0  0  0  0
   -5.5082  -13.3375   12.6568 C   0  0  0  0  0  0  0  0  0  0  0  0
   -6.4471  -12.3321   12.4677 C   0  0  0  0  0  0  0  0  0  0  0  0
   -7.7029  -12.6809   11.9904 C   0  0  0  0  0  0  0  0  0  0  0  0
   -7.9631  -13.9484   11.7277 N   0  0  0  0  0  0  0  0  0  0  0  0
   -8.8947  -17.9416   10.8256 C   0  0  0  0  0  0  0  0  0  0  0  0
   -8.0600  -18.8514   10.4071 N   0  0  0  0  0  0  0  0  0  0  0  0
   -8.7794  -20.0623   10.2494 O   0  0  0  0  0  0  0  0  0  0  0  0
  -10.1258  -19.8096   10.6101 N   0  0  0  0  0  0  0  0  0  0  0  0
  -10.2179  -18.5572   10.9610 C   0  0  0  0  0  0  0  0  0  0  0  0
  -11.3799  -17.9117   11.3850 N   0  0  0  0  0  0  0  0  0  0  0  0
  -12.3438  -18.6071   12.0193 C   0  0  0  0  0  0  0  0  0  0  0  0
  -12.2016  -19.7946   12.2221 O   0  0  0  0  0  0  0  0  0  0  0  0
  -13.5989  -17.9095   12.4776 C   0  0  0  0  0  0  0  0  0  0  0  0
  1  2  1  0
  1 10  1  0
  2  3  2  0
  2  4  1  0
  4  5  2  0
  4  9  1  0
  5  6  1  0
  6  7  2  0
  7  8  1  0
  8  9  2  0
 10 11  2  0
 10 14  1  0
 11 12  1  0
 12 13  1  0
 13 14  2  0
 14 15  1  0
 15 16  1  0
 16 17  2  0
 16 18  1  0
M  END
>  <Gold.Gold.Protein.RotatedWaterAtoms>  (801) 


>  <Gold.Id.Protein>  (801) 


>  <Gold.PLP.Chemscore.CHOScore>  (801) 
1.0000

>  <Gold.PLP.Chemscore.Hbond>  (801) 
1.0000

>  <Gold.PLP.Chemscore.Internal.Correction>  (801) 
0.0002

>  <Gold.PLP.Chemscore.Metal>  (801) 
0.0000

>  <Gold.PLP.Fitness>  (801) 
41.2228

>  <Gold.PLP.PLP>  (801) 
-36.0779

>  <Gold.PLP.ligand.clash>  (801) 
0.0000

>  <Gold.PLP.ligand.torsion>  (801) 
0.4276

>  <Gold.PLP.part.buried>  (801) 
-9.4491

>  <Gold.PLP.part.hbond>  (801) 
-1.0000

>  <Gold.PLP.part.metal>  (801) 
0.0000

>  <Gold.PLP.part.nonpolar>  (801) 
-25.6106

>  <Gold.PLP.part.repulsive>  (801) 
0.4293

>  <Gold.Protein.RotatedAtoms>  (801) 


>  <Gold.Protein.RotatedTorsions>  (801) 


>  <Gold.Protein.RotatedWaterAtoms>  (801) 


>  <Gold.Version>  (801) 
5.3.0

>  <PLP.Chemscore.CHOScore>  (801) 


>  <PLP.Chemscore.Hbond>  (801) 


>  <PLP.Chemscore.Internal.Correction>  (801) 


>  <PLP.Chemscore.Metal>  (801) 


>  <PLP.Fitness>  (801) 


>  <PLP.PLP>  (801) 


>  <PLP.ligand.clash>  (801) 


>  <PLP.ligand.torsion>  (801) 


>  <PLP.part.buried>  (801) 


>  <PLP.part.hbond>  (801) 


>  <PLP.part.metal>  (801) 


>  <PLP.part.nonpolar>  (801) 


>  <PLP.part.repulsive>  (801) 


>  <Version>  (801) 


$$$$
3801|Compound_1461|Compounds_3D_F|sdf|447|dock10|1
     RDKit          3D

 28 31  0  0  0  0  0  0  0  0999 V2000
   -8.4065  -19.4212    7.3129 O   0  0  0  0  0  0  0  0  0  0  0  0
   -8.6903  -19.0300    8.5786 C   0  0  0  0  0  0  0  0  0  0  0  0
   -8.0485  -18.0090    9.1309 N   0  0  0  0  0  0  0  0  0  0  0  0
   -8.3194  -17.6174   10.3692 C   0  0  0  0  0  0  0  0  0  0  0  0
   -9.2318  -18.2168   11.1157 N   0  0  0  0  0  0  0  0  0  0  0  0
   -9.9207  -19.2486   10.6412 C   0  0  0  0  0  0  0  0  0  0  0  0
   -9.6720  -19.6930    9.3313 C   0  0  0  0  0  0  0  0  0  0  0  0
  -10.4983  -20.7428    9.1020 N   0  0  0  0  0  0  0  0  0  0  0  0
  -11.2202  -20.9653   10.1613 C   0  0  0  0  0  0  0  0  0  0  0  0
  -10.9041  -20.0664   11.1379 N   0  0  0  0  0  0  0  0  0  0  0  0
  -11.4998  -19.9919   12.4745 C   0  0  0  0  0  0  0  0  0  0  0  0
  -10.8980  -20.9730   13.3473 O   0  0  0  0  0  0  0  0  0  0  0  0
  -11.8477  -21.1601   14.4201 C   0  0  0  0  0  0  0  0  0  0  0  0
  -11.5988  -22.4964   15.1239 C   0  0  0  0  0  0  0  0  0  0  0  0
  -12.5968  -22.7004   16.1255 O   0  0  0  0  0  0  0  0  0  0  0  0
  -13.2285  -21.1621   13.7289 C   0  0  0  0  0  0  0  0  0  0  0  0
  -14.1986  -20.5035   14.5454 O   0  0  0  0  0  0  0  0  0  0  0  0
  -12.9951  -20.3738   12.4187 C   0  0  0  0  0  0  0  0  0  0  0  0
  -13.8135  -19.2027   12.3876 O   0  0  0  0  0  0  0  0  0  0  0  0
   -7.6188  -16.5421   10.9012 N   0  0  0  0  0  0  0  0  0  0  0  0
   -8.1730  -15.3139   10.9067 C   0  0  0  0  0  0  0  0  0  0  0  0
   -9.2844  -15.1464   10.4464 O   0  0  0  0  0  0  0  0  0  0  0  0
   -7.4256  -14.1643   11.4769 C   0  0  0  0  0  0  0  0  0  0  0  0
   -7.9626  -12.9542   11.4252 N   0  0  0  0  0  0  0  0  0  0  0  0
   -7.3243  -11.9093   11.9219 C   0  0  0  0  0  0  0  0  0  0  0  0
   -6.0764  -12.0929   12.5026 C   0  0  0  0  0  0  0  0  0  0  0  0
   -5.5436  -13.3743   12.5390 C   0  0  0  0  0  0  0  0  0  0  0  0
   -6.2387  -14.3744   12.0282 N   0  0  0  0  0  0  0  0  0  0  0  0
  1  2  1  0
  2  3  2  0
  2  7  1  0
  3  4  1  0
  4  5  2  0
  4 20  1  0
  5  6  1  0
  6  7  2  0
  6 10  1  0
  7  8  1  0
  8  9  2  0
  9 10  1  0
 10 11  1  0
 11 12  1  0
 11 18  1  0
 12 13  1  0
 13 14  1  0
 13 16  1  0
 14 15  1  0
 16 17  1  0
 16 18  1  0
 18 19  1  0
 20 21  1  0
 21 22  2  0
 21 23  1  0
 23 24  2  0
 23 28  1  0
 24 25  1  0
 25 26  2  0
 26 27  1  0
 27 28  2  0
M  END
>  <Gold.Gold.Protein.RotatedWaterAtoms>  (802) 


>  <Gold.Id.Protein>  (802) 


>  <Gold.PLP.Chemscore.CHOScore>  (802) 
1.0000

>  <Gold.PLP.Chemscore.Hbond>  (802) 
3.0000

>  <Gold.PLP.Chemscore.Internal.Correction>  (802) 
0.4476

>  <Gold.PLP.Chemscore.Metal>  (802) 
0.0000

>  <Gold.PLP.Fitness>  (802) 
58.4557

>  <Gold.PLP.PLP>  (802) 
-48.7754

>  <Gold.PLP.ligand.clash>  (802) 
0.0000

>  <Gold.PLP.ligand.torsion>  (802) 
1.3836

>  <Gold.PLP.part.buried>  (802) 
-11.3779

>  <Gold.PLP.part.hbond>  (802) 
-3.9337

>  <Gold.PLP.part.metal>  (802) 
0.0000

>  <Gold.PLP.part.nonpolar>  (802) 
-33.6628

>  <Gold.PLP.part.repulsive>  (802) 
0.3761

>  <Gold.Protein.RotatedAtoms>  (802) 


>  <Gold.Protein.RotatedTorsions>  (802) 


>  <Gold.Protein.RotatedWaterAtoms>  (802) 


>  <Gold.Version>  (802) 
5.3.0

>  <PLP.Chemscore.CHOScore>  (802) 


>  <PLP.Chemscore.Hbond>  (802) 


>  <PLP.Chemscore.Internal.Correction>  (802) 


>  <PLP.Chemscore.Metal>  (802) 


>  <PLP.Fitness>  (802) 


>  <PLP.PLP>  (802) 


>  <PLP.ligand.clash>  (802) 


>  <PLP.ligand.torsion>  (802) 


>  <PLP.part.buried>  (802) 


>  <PLP.part.hbond>  (802) 


>  <PLP.part.metal>  (802) 


>  <PLP.part.nonpolar>  (802) 


>  <PLP.part.repulsive>  (802) 


>  <Version>  (802) 


$$$$
3802|Compound_1462|Compounds_3D_F|sdf|448|dock10|1
     RDKit          3D

 17 18  0  0  0  0  0  0  0  0999 V2000
  -13.9563  -18.9717   12.7914 O   0  0  0  0  0  0  0  0  0  0  0  0
  -12.9666  -19.6374   12.1647 C   0  0  0  0  0  0  0  0  0  0  0  0
  -13.1259  -20.7973   11.8390 O   0  0  0  0  0  0  0  0  0  0  0  0
  -11.6886  -18.9579   11.8748 C   0  0  0  0  0  0  0  0  0  0  0  0
  -11.3785  -17.7183   12.1982 N   0  0  0  0  0  0  0  0  0  0  0  0
  -10.1468  -17.4382   11.7809 C   0  0  0  0  0  0  0  0  0  0  0  0
   -9.6455  -18.4966   11.1802 N   0  0  0  0  0  0  0  0  0  0  0  0
  -10.6269  -19.4996   11.2329 N   0  0  0  0  0  0  0  0  0  0  0  0
   -9.4920  -16.2169   11.9524 N   0  0  0  0  0  0  0  0  0  0  0  0
   -8.1494  -16.1531   11.8552 C   0  0  0  0  0  0  0  0  0  0  0  0
   -7.5084  -17.1574   11.6169 O   0  0  0  0  0  0  0  0  0  0  0  0
   -7.4525  -14.8543   12.0377 C   0  0  0  0  0  0  0  0  0  0  0  0
   -6.1341  -14.8048   11.9115 N   0  0  0  0  0  0  0  0  0  0  0  0
   -5.4833  -13.6658   12.0662 C   0  0  0  0  0  0  0  0  0  0  0  0
   -6.1965  -12.5132   12.3655 C   0  0  0  0  0  0  0  0  0  0  0  0
   -7.5767  -12.6022   12.4908 C   0  0  0  0  0  0  0  0  0  0  0  0
   -8.1642  -13.7727   12.3176 N   0  0  0  0  0  0  0  0  0  0  0  0
  1  2  1  0
  2  3  2  0
  2  4  1  0
  4  5  2  0
  4  8  1  0
  5  6  1  0
  6  7  2  0
  6  9  1  0
  7  8  1  0
  9 10  1  0
 10 11  2  0
 10 12  1  0
 12 13  2  0
 12 17  1  0
 13 14  1  0
 14 15  2  0
 15 16  1  0
 16 17  2  0
M  END
>  <Gold.Gold.Protein.RotatedWaterAtoms>  (803) 


>  <Gold.Id.Protein>  (803) 


>  <Gold.PLP.Chemscore.CHOScore>  (803) 
1.8939

>  <Gold.PLP.Chemscore.Hbond>  (803) 
2.0000

>  <Gold.PLP.Chemscore.Internal.Correction>  (803) 
0.0010

>  <Gold.PLP.Chemscore.Metal>  (803) 
0.0000

>  <Gold.PLP.Fitness>  (803) 
44.9722

>  <Gold.PLP.PLP>  (803) 
-33.4587

>  <Gold.PLP.ligand.clash>  (803) 
0.0000

>  <Gold.PLP.ligand.torsion>  (803) 
0.0847

>  <Gold.PLP.part.buried>  (803) 
-7.2945

>  <Gold.PLP.part.hbond>  (803) 
-3.7662

>  <Gold.PLP.part.metal>  (803) 
0.0000

>  <Gold.PLP.part.nonpolar>  (803) 
-22.5359

>  <Gold.PLP.part.repulsive>  (803) 
0.5214

>  <Gold.Protein.RotatedAtoms>  (803) 


>  <Gold.Protein.RotatedTorsions>  (803) 


>  <Gold.Protein.RotatedWaterAtoms>  (803) 


>  <Gold.Version>  (803) 
5.3.0

>  <PLP.Chemscore.CHOScore>  (803) 


>  <PLP.Chemscore.Hbond>  (803) 


>  <PLP.Chemscore.Internal.Correction>  (803) 


>  <PLP.Chemscore.Metal>  (803) 


>  <PLP.Fitness>  (803) 


>  <PLP.PLP>  (803) 


>  <PLP.ligand.clash>  (803) 


>  <PLP.ligand.torsion>  (803) 


>  <PLP.part.buried>  (803) 


>  <PLP.part.hbond>  (803) 


>  <PLP.part.metal>  (803) 


>  <PLP.part.nonpolar>  (803) 


>  <PLP.part.repulsive>  (803) 


>  <Version>  (803) 


$$$$
3803|Compound_1478|Compounds_3D_F|sdf|453|dock10|1
     RDKit          3D

 19 20  0  0  0  0  0  0  0  0999 V2000
   -4.3078  -12.1722   13.0285 O   0  0  0  0  0  0  0  0  0  0  0  0
   -5.5868  -11.9970   12.6040 C   0  0  0  0  0  0  0  0  0  0  0  0
   -6.4383  -13.0859   12.4712 C   0  0  0  0  0  0  0  0  0  0  0  0
   -7.7470  -12.8539   12.0321 C   0  0  0  0  0  0  0  0  0  0  0  0
   -8.1413  -11.5471   11.7466 C   0  0  0  0  0  0  0  0  0  0  0  0
   -7.2989  -10.5445   11.8868 N   0  0  0  0  0  0  0  0  0  0  0  0
   -6.0608  -10.7267   12.3043 C   0  0  0  0  0  0  0  0  0  0  0  0
   -8.6954  -13.9764   11.8728 C   0  0  0  0  0  0  0  0  0  0  0  0
   -9.7842  -13.7856   11.3662 O   0  0  0  0  0  0  0  0  0  0  0  0
   -8.3535  -15.2116   12.2902 N   0  0  0  0  0  0  0  0  0  0  0  0
   -9.2434  -16.2648   12.1407 C   0  0  0  0  0  0  0  0  0  0  0  0
  -10.5012  -16.2760   12.5054 N   0  0  0  0  0  0  0  0  0  0  0  0
  -11.0189  -17.4174   12.2123 N   0  0  0  0  0  0  0  0  0  0  0  0
  -10.1186  -18.1716   11.6533 C   0  0  0  0  0  0  0  0  0  0  0  0
   -8.9757  -17.4624   11.5881 O   0  0  0  0  0  0  0  0  0  0  0  0
  -10.3192  -19.5825   11.1622 C   0  0  0  0  0  0  0  0  0  0  0  0
  -11.2834  -19.5907   10.1488 F   0  0  0  0  0  0  0  0  0  0  0  0
   -9.1103  -20.0780   10.6596 F   0  0  0  0  0  0  0  0  0  0  0  0
  -10.7487  -20.3884   12.2212 F   0  0  0  0  0  0  0  0  0  0  0  0
  1  2  1  0
  2  3  2  0
  2  7  1  0
  3  4  1  0
  4  5  2  0
  4  8  1  0
  5  6  1  0
  6  7  2  0
  8  9  2  0
  8 10  1  0
 10 11  1  0
 11 12  2  0
 11 15  1  0
 12 13  1  0
 13 14  2  0
 14 15  1  0
 14 16  1  0
 16 17  1  0
 16 18  1  0
 16 19  1  0
M  END
>  <Gold.Gold.Protein.RotatedWaterAtoms>  (804) 


>  <Gold.Id.Protein>  (804) 


>  <Gold.PLP.Chemscore.CHOScore>  (804) 
0.5607

>  <Gold.PLP.Chemscore.Hbond>  (804) 
2.4927

>  <Gold.PLP.Chemscore.Internal.Correction>  (804) 
0.0008

>  <Gold.PLP.Chemscore.Metal>  (804) 
0.0000

>  <Gold.PLP.Fitness>  (804) 
58.7988

>  <Gold.PLP.PLP>  (804) 
-50.6015

>  <Gold.PLP.ligand.clash>  (804) 
0.0000

>  <Gold.PLP.ligand.torsion>  (804) 
0.4817

>  <Gold.PLP.part.buried>  (804) 
-11.0012

>  <Gold.PLP.part.hbond>  (804) 
-6.5352

>  <Gold.PLP.part.metal>  (804) 
0.0000

>  <Gold.PLP.part.nonpolar>  (804) 
-35.6797

>  <Gold.PLP.part.repulsive>  (804) 
0.6287

>  <Gold.Protein.RotatedAtoms>  (804) 


>  <Gold.Protein.RotatedTorsions>  (804) 


>  <Gold.Protein.RotatedWaterAtoms>  (804) 


>  <Gold.Version>  (804) 
5.3.0

>  <PLP.Chemscore.CHOScore>  (804) 


>  <PLP.Chemscore.Hbond>  (804) 


>  <PLP.Chemscore.Internal.Correction>  (804) 


>  <PLP.Chemscore.Metal>  (804) 


>  <PLP.Fitness>  (804) 


>  <PLP.PLP>  (804) 


>  <PLP.ligand.clash>  (804) 


>  <PLP.ligand.torsion>  (804) 


>  <PLP.part.buried>  (804) 


>  <PLP.part.hbond>  (804) 


>  <PLP.part.metal>  (804) 


>  <PLP.part.nonpolar>  (804) 


>  <PLP.part.repulsive>  (804) 


>  <Version>  (804) 


$$$$
3804|Compound_1480|Compounds_3D_F|sdf|454|dock10|1
     RDKit          3D

 19 20  0  0  0  0  0  0  0  0999 V2000
   -7.8999   -9.2097   11.3980 O   0  0  0  0  0  0  0  0  0  0  0  0
   -7.4833  -10.4510   11.7616 C   0  0  0  0  0  0  0  0  0  0  0  0
   -8.3600  -11.5271   11.7178 C   0  0  0  0  0  0  0  0  0  0  0  0
   -7.8831  -12.7863   12.1005 C   0  0  0  0  0  0  0  0  0  0  0  0
   -6.5552  -12.9095   12.5086 C   0  0  0  0  0  0  0  0  0  0  0  0
   -5.7597  -11.8597   12.5341 N   0  0  0  0  0  0  0  0  0  0  0  0
   -6.1743  -10.6609   12.1749 C   0  0  0  0  0  0  0  0  0  0  0  0
   -8.7730  -13.9661   12.0732 C   0  0  0  0  0  0  0  0  0  0  0  0
   -9.9776  -13.8215   12.1544 O   0  0  0  0  0  0  0  0  0  0  0  0
   -8.2488  -15.2027   11.9594 N   0  0  0  0  0  0  0  0  0  0  0  0
   -9.0862  -16.3121   11.9334 C   0  0  0  0  0  0  0  0  0  0  0  0
  -10.3557  -16.4311   12.2950 N   0  0  0  0  0  0  0  0  0  0  0  0
  -10.9734  -17.5279   12.2041 N   0  0  0  0  0  0  0  0  0  0  0  0
  -10.3974  -18.6220   11.7468 C   0  0  0  0  0  0  0  0  0  0  0  0
   -8.7596  -17.9884   11.3962 S   0  0  0  0  0  0  0  0  0  0  0  0
  -10.9586  -20.0086   11.5652 C   0  0  0  0  0  0  0  0  0  0  0  0
  -11.9877  -19.9745   10.6178 F   0  0  0  0  0  0  0  0  0  0  0  0
   -9.9474  -20.8676   11.1241 F   0  0  0  0  0  0  0  0  0  0  0  0
  -11.4634  -20.4705   12.7855 F   0  0  0  0  0  0  0  0  0  0  0  0
  1  2  1  0
  2  3  2  0
  2  7  1  0
  3  4  1  0
  4  5  2  0
  4  8  1  0
  5  6  1  0
  6  7  2  0
  8  9  2  0
  8 10  1  0
 10 11  1  0
 11 12  2  0
 11 15  1  0
 12 13  1  0
 13 14  2  0
 14 15  1  0
 14 16  1  0
 16 17  1  0
 16 18  1  0
 16 19  1  0
M  END
>  <Gold.Gold.Protein.RotatedWaterAtoms>  (805) 


>  <Gold.Id.Protein>  (805) 


>  <Gold.PLP.Chemscore.CHOScore>  (805) 
0.1766

>  <Gold.PLP.Chemscore.Hbond>  (805) 
2.9263

>  <Gold.PLP.Chemscore.Internal.Correction>  (805) 
0.0007

>  <Gold.PLP.Chemscore.Metal>  (805) 
0.0000

>  <Gold.PLP.Fitness>  (805) 
61.1120

>  <Gold.PLP.PLP>  (805) 
-52.5171

>  <Gold.PLP.ligand.clash>  (805) 
0.0000

>  <Gold.PLP.ligand.torsion>  (805) 
0.3571

>  <Gold.PLP.part.buried>  (805) 
-10.3475

>  <Gold.PLP.part.hbond>  (805) 
-5.5179

>  <Gold.PLP.part.metal>  (805) 
0.0000

>  <Gold.PLP.part.nonpolar>  (805) 
-37.9293

>  <Gold.PLP.part.repulsive>  (805) 
0.6622

>  <Gold.Protein.RotatedAtoms>  (805) 


>  <Gold.Protein.RotatedTorsions>  (805) 


>  <Gold.Protein.RotatedWaterAtoms>  (805) 


>  <Gold.Version>  (805) 
5.3.0

>  <PLP.Chemscore.CHOScore>  (805) 


>  <PLP.Chemscore.Hbond>  (805) 


>  <PLP.Chemscore.Internal.Correction>  (805) 


>  <PLP.Chemscore.Metal>  (805) 


>  <PLP.Fitness>  (805) 


>  <PLP.PLP>  (805) 


>  <PLP.ligand.clash>  (805) 


>  <PLP.ligand.torsion>  (805) 


>  <PLP.part.buried>  (805) 


>  <PLP.part.hbond>  (805) 


>  <PLP.part.metal>  (805) 


>  <PLP.part.nonpolar>  (805) 


>  <PLP.part.repulsive>  (805) 


>  <Version>  (805) 


$$$$
3805|Compound_1483|Compounds_3D_F|sdf|456|dock10|1
     RDKit          3D

 21 22  0  0  0  0  0  0  0  0999 V2000
   -5.5612  -18.7300    9.9931 O   0  0  0  0  0  0  0  0  0  0  0  0
   -6.6462  -17.9319   10.0035 C   0  0  0  0  0  0  0  0  0  0  0  0
   -6.5730  -16.8024    9.5648 O   0  0  0  0  0  0  0  0  0  0  0  0
   -7.9265  -18.4318   10.5516 C   0  0  0  0  0  0  0  0  0  0  0  0
   -8.2523  -19.7221   10.4460 N   0  0  0  0  0  0  0  0  0  0  0  0
   -9.3920  -20.1744   10.9326 C   0  0  0  0  0  0  0  0  0  0  0  0
   -9.6830  -21.4914   10.8044 O   0  0  0  0  0  0  0  0  0  0  0  0
  -10.2598  -19.3810   11.5431 N   0  0  0  0  0  0  0  0  0  0  0  0
  -10.0158  -18.0888   11.6918 C   0  0  0  0  0  0  0  0  0  0  0  0
  -10.9116  -17.2870   12.3183 O   0  0  0  0  0  0  0  0  0  0  0  0
   -8.8117  -17.5606   11.1942 C   0  0  0  0  0  0  0  0  0  0  0  0
   -8.5149  -16.2059   11.3286 N   0  0  0  0  0  0  0  0  0  0  0  0
   -7.4086  -15.8198   11.9938 C   0  0  0  0  0  0  0  0  0  0  0  0
   -6.6965  -16.6514   12.5226 O   0  0  0  0  0  0  0  0  0  0  0  0
   -7.0605  -14.3862   12.0805 C   0  0  0  0  0  0  0  0  0  0  0  0
   -7.9707  -13.4092   11.6756 C   0  0  0  0  0  0  0  0  0  0  0  0
   -7.6633  -12.1316   11.7518 N   0  0  0  0  0  0  0  0  0  0  0  0
   -6.4962  -11.7203   12.2069 C   0  0  0  0  0  0  0  0  0  0  0  0
   -5.5333  -12.6276   12.6302 C   0  0  0  0  0  0  0  0  0  0  0  0
   -4.3346  -12.1905   13.0979 O   0  0  0  0  0  0  0  0  0  0  0  0
   -5.8124  -13.9859   12.5747 C   0  0  0  0  0  0  0  0  0  0  0  0
  1  2  1  0
  2  3  2  0
  2  4  1  0
  4  5  2  0
  4 11  1  0
  5  6  1  0
  6  7  1  0
  6  8  2  0
  8  9  1  0
  9 10  1  0
  9 11  2  0
 11 12  1  0
 12 13  1  0
 13 14  2  0
 13 15  1  0
 15 16  2  0
 15 21  1  0
 16 17  1  0
 17 18  2  0
 18 19  1  0
 19 20  1  0
 19 21  2  0
M  END
>  <Gold.Gold.Protein.RotatedWaterAtoms>  (806) 


>  <Gold.Id.Protein>  (806) 


>  <Gold.PLP.Chemscore.CHOScore>  (806) 
0.0000

>  <Gold.PLP.Chemscore.Hbond>  (806) 
3.0000

>  <Gold.PLP.Chemscore.Internal.Correction>  (806) 
1.1565

>  <Gold.PLP.Chemscore.Metal>  (806) 
0.0000

>  <Gold.PLP.Fitness>  (806) 
54.0425

>  <Gold.PLP.PLP>  (806) 
-45.9569

>  <Gold.PLP.ligand.clash>  (806) 
0.0000

>  <Gold.PLP.ligand.torsion>  (806) 
1.0355

>  <Gold.PLP.part.buried>  (806) 
-11.2564

>  <Gold.PLP.part.hbond>  (806) 
-4.6774

>  <Gold.PLP.part.metal>  (806) 
0.0000

>  <Gold.PLP.part.nonpolar>  (806) 
-31.0695

>  <Gold.PLP.part.repulsive>  (806) 
0.2288

>  <Gold.Protein.RotatedAtoms>  (806) 


>  <Gold.Protein.RotatedTorsions>  (806) 


>  <Gold.Protein.RotatedWaterAtoms>  (806) 


>  <Gold.Version>  (806) 
5.3.0

>  <PLP.Chemscore.CHOScore>  (806) 


>  <PLP.Chemscore.Hbond>  (806) 


>  <PLP.Chemscore.Internal.Correction>  (806) 


>  <PLP.Chemscore.Metal>  (806) 


>  <PLP.Fitness>  (806) 


>  <PLP.PLP>  (806) 


>  <PLP.ligand.clash>  (806) 


>  <PLP.ligand.torsion>  (806) 


>  <PLP.part.buried>  (806) 


>  <PLP.part.hbond>  (806) 


>  <PLP.part.metal>  (806) 


>  <PLP.part.nonpolar>  (806) 


>  <PLP.part.repulsive>  (806) 


>  <Version>  (806) 


$$$$
3806|Compound_1488|Compounds_3D_F|sdf|458|dock10|1
     RDKit          3D

 27 29  0  0  0  0  0  0  0  0999 V2000
   -4.3242  -12.1856   13.1004 O   0  0  0  0  0  0  0  0  0  0  0  0
   -5.5908  -12.0759   12.6207 C   0  0  0  0  0  0  0  0  0  0  0  0
   -6.1305  -10.8272   12.3436 C   0  0  0  0  0  0  0  0  0  0  0  0
   -7.3591  -10.7066   11.8761 N   0  0  0  0  0  0  0  0  0  0  0  0
   -8.1248  -11.7533   11.6522 C   0  0  0  0  0  0  0  0  0  0  0  0
   -7.6591  -13.0442   11.9051 C   0  0  0  0  0  0  0  0  0  0  0  0
   -6.3585  -13.2109   12.3949 C   0  0  0  0  0  0  0  0  0  0  0  0
   -8.5216  -14.2176   11.6526 C   0  0  0  0  0  0  0  0  0  0  0  0
   -9.5401  -14.0949   11.0022 O   0  0  0  0  0  0  0  0  0  0  0  0
   -8.1762  -15.4246   12.1441 N   0  0  0  0  0  0  0  0  0  0  0  0
   -8.9849  -16.5258   11.9076 C   0  0  0  0  0  0  0  0  0  0  0  0
   -8.4549  -17.5888   11.3087 N   0  0  0  0  0  0  0  0  0  0  0  0
   -9.1750  -18.6685   11.0565 C   0  0  0  0  0  0  0  0  0  0  0  0
   -8.6242  -19.7430   10.4475 O   0  0  0  0  0  0  0  0  0  0  0  0
  -10.5397  -18.6734   11.4427 C   0  0  0  0  0  0  0  0  0  0  0  0
  -11.3293  -19.7226   11.2239 N   0  0  0  0  0  0  0  0  0  0  0  0
  -12.5879  -19.6793   11.6001 C   0  0  0  0  0  0  0  0  0  0  0  0
  -13.1052  -18.5440   12.2265 C   0  0  0  0  0  0  0  0  0  0  0  0
  -12.3432  -17.4958   12.4527 N   0  0  0  0  0  0  0  0  0  0  0  0
  -11.0606  -17.5190   12.0787 C   0  0  0  0  0  0  0  0  0  0  0  0
  -10.2458  -16.4782   12.2922 N   0  0  0  0  0  0  0  0  0  0  0  0
  -13.4825  -20.8666   11.3543 C   0  0  0  0  0  0  0  0  0  0  0  0
  -12.9669  -22.0045   12.0489 O   0  0  0  0  0  0  0  0  0  0  0  0
  -13.5314  -21.1650    9.8536 C   0  0  0  0  0  0  0  0  0  0  0  0
  -12.2007  -21.3079    9.3529 O   0  0  0  0  0  0  0  0  0  0  0  0
  -14.2290  -20.0128    9.1275 C   0  0  0  0  0  0  0  0  0  0  0  0
  -14.2911  -20.3002    7.7292 O   0  0  0  0  0  0  0  0  0  0  0  0
  1  2  1  0
  2  3  2  0
  2  7  1  0
  3  4  1  0
  4  5  2  0
  5  6  1  0
  6  7  2  0
  6  8  1  0
  8  9  2  0
  8 10  1  0
 10 11  1  0
 11 12  2  0
 11 21  1  0
 12 13  1  0
 13 14  1  0
 13 15  2  0
 15 16  1  0
 15 20  1  0
 16 17  2  0
 17 18  1  0
 17 22  1  0
 18 19  2  0
 19 20  1  0
 20 21  2  0
 22 23  1  0
 22 24  1  0
 24 25  1  0
 24 26  1  0
 26 27  1  0
M  END
>  <Gold.Gold.Protein.RotatedWaterAtoms>  (807) 


>  <Gold.Id.Protein>  (807) 


>  <Gold.PLP.Chemscore.CHOScore>  (807) 
1.7599

>  <Gold.PLP.Chemscore.Hbond>  (807) 
2.3600

>  <Gold.PLP.Chemscore.Internal.Correction>  (807) 
0.4555

>  <Gold.PLP.Chemscore.Metal>  (807) 
0.0000

>  <Gold.PLP.Fitness>  (807) 
69.7430

>  <Gold.PLP.PLP>  (807) 
-58.2400

>  <Gold.PLP.ligand.clash>  (807) 
0.0000

>  <Gold.PLP.ligand.torsion>  (807) 
0.6562

>  <Gold.PLP.part.buried>  (807) 
-7.5842

>  <Gold.PLP.part.hbond>  (807) 
-8.1766

>  <Gold.PLP.part.metal>  (807) 
0.0000

>  <Gold.PLP.part.nonpolar>  (807) 
-43.7470

>  <Gold.PLP.part.repulsive>  (807) 
1.0179

>  <Gold.Protein.RotatedAtoms>  (807) 


>  <Gold.Protein.RotatedTorsions>  (807) 


>  <Gold.Protein.RotatedWaterAtoms>  (807) 


>  <Gold.Version>  (807) 
5.3.0

>  <PLP.Chemscore.CHOScore>  (807) 


>  <PLP.Chemscore.Hbond>  (807) 


>  <PLP.Chemscore.Internal.Correction>  (807) 


>  <PLP.Chemscore.Metal>  (807) 


>  <PLP.Fitness>  (807) 


>  <PLP.PLP>  (807) 


>  <PLP.ligand.clash>  (807) 


>  <PLP.ligand.torsion>  (807) 


>  <PLP.part.buried>  (807) 


>  <PLP.part.hbond>  (807) 


>  <PLP.part.metal>  (807) 


>  <PLP.part.nonpolar>  (807) 


>  <PLP.part.repulsive>  (807) 


>  <Version>  (807) 


$$$$
3807|Compound_1490|Compounds_3D_F|sdf|460|dock10|1
     RDKit          3D

 19 20  0  0  0  0  0  0  0  0999 V2000
   -7.6154   -9.2238   11.3501 O   0  0  0  0  0  0  0  0  0  0  0  0
   -7.3018  -10.4919   11.7245 C   0  0  0  0  0  0  0  0  0  0  0  0
   -8.2444  -11.5073   11.6262 C   0  0  0  0  0  0  0  0  0  0  0  0
   -7.8736  -12.7961   12.0241 C   0  0  0  0  0  0  0  0  0  0  0  0
   -6.5798  -13.0098   12.4989 C   0  0  0  0  0  0  0  0  0  0  0  0
   -5.7181  -12.0170   12.5737 N   0  0  0  0  0  0  0  0  0  0  0  0
   -6.0329  -10.7908   12.2028 C   0  0  0  0  0  0  0  0  0  0  0  0
   -8.8375  -13.9136   11.9416 C   0  0  0  0  0  0  0  0  0  0  0  0
   -9.9956  -13.6975   11.6412 O   0  0  0  0  0  0  0  0  0  0  0  0
   -8.4333  -15.1733   12.1995 N   0  0  0  0  0  0  0  0  0  0  0  0
   -9.3422  -16.2279   12.1217 C   0  0  0  0  0  0  0  0  0  0  0  0
  -10.6014  -16.2064   12.4717 N   0  0  0  0  0  0  0  0  0  0  0  0
  -11.1307  -17.2763   12.2848 O   0  0  0  0  0  0  0  0  0  0  0  0
  -10.2738  -18.1725   11.7733 C   0  0  0  0  0  0  0  0  0  0  0  0
   -9.0868  -17.5394   11.6396 C   0  0  0  0  0  0  0  0  0  0  0  0
  -10.5770  -19.6040   11.4133 C   0  0  0  0  0  0  0  0  0  0  0  0
  -11.5798  -19.6372   10.2583 C   0  0  0  0  0  0  0  0  0  0  0  0
   -9.2870  -20.3080   10.9898 C   0  0  0  0  0  0  0  0  0  0  0  0
  -11.1738  -20.3201   12.6273 C   0  0  0  0  0  0  0  0  0  0  0  0
  1  2  1  0
  2  3  2  0
  2  7  1  0
  3  4  1  0
  4  5  2  0
  4  8  1  0
  5  6  1  0
  6  7  2  0
  8  9  2  0
  8 10  1  0
 10 11  1  0
 11 12  2  0
 11 15  1  0
 12 13  1  0
 13 14  1  0
 14 15  2  0
 14 16  1  0
 16 17  1  0
 16 18  1  0
 16 19  1  0
M  END
>  <Gold.Gold.Protein.RotatedWaterAtoms>  (808) 


>  <Gold.Id.Protein>  (808) 


>  <Gold.PLP.Chemscore.CHOScore>  (808) 
0.2030

>  <Gold.PLP.Chemscore.Hbond>  (808) 
3.2343

>  <Gold.PLP.Chemscore.Internal.Correction>  (808) 
0.0007

>  <Gold.PLP.Chemscore.Metal>  (808) 
0.0000

>  <Gold.PLP.Fitness>  (808) 
61.7544

>  <Gold.PLP.PLP>  (808) 
-52.2026

>  <Gold.PLP.ligand.clash>  (808) 
0.0000

>  <Gold.PLP.ligand.torsion>  (808) 
0.3803

>  <Gold.PLP.part.buried>  (808) 
-6.0824

>  <Gold.PLP.part.hbond>  (808) 
-6.4885

>  <Gold.PLP.part.metal>  (808) 
0.0000

>  <Gold.PLP.part.nonpolar>  (808) 
-39.9995

>  <Gold.PLP.part.repulsive>  (808) 
0.7173

>  <Gold.Protein.RotatedAtoms>  (808) 


>  <Gold.Protein.RotatedTorsions>  (808) 


>  <Gold.Protein.RotatedWaterAtoms>  (808) 


>  <Gold.Version>  (808) 
5.3.0

>  <PLP.Chemscore.CHOScore>  (808) 


>  <PLP.Chemscore.Hbond>  (808) 


>  <PLP.Chemscore.Internal.Correction>  (808) 


>  <PLP.Chemscore.Metal>  (808) 


>  <PLP.Fitness>  (808) 


>  <PLP.PLP>  (808) 


>  <PLP.ligand.clash>  (808) 


>  <PLP.ligand.torsion>  (808) 


>  <PLP.part.buried>  (808) 


>  <PLP.part.hbond>  (808) 


>  <PLP.part.metal>  (808) 


>  <PLP.part.nonpolar>  (808) 


>  <PLP.part.repulsive>  (808) 


>  <Version>  (808) 


$$$$
3808|Compound_1495|Compounds_3D_F|sdf|462|dock10|1
     RDKit          3D

 18 19  0  0  0  0  0  0  0  0999 V2000
  -13.9149  -19.5363   12.9522 O   0  0  0  0  0  0  0  0  0  0  0  0
  -12.8795  -20.1529   12.3496 C   0  0  0  0  0  0  0  0  0  0  0  0
  -12.9604  -21.3295   12.0563 O   0  0  0  0  0  0  0  0  0  0  0  0
  -11.6468  -19.3995   12.0468 C   0  0  0  0  0  0  0  0  0  0  0  0
  -11.4643  -18.1065   12.2264 N   0  0  0  0  0  0  0  0  0  0  0  0
  -10.2363  -17.7681   11.8458 C   0  0  0  0  0  0  0  0  0  0  0  0
   -9.6082  -18.8408   11.4133 N   0  0  0  0  0  0  0  0  0  0  0  0
  -10.5030  -19.9157   11.5389 N   0  0  0  0  0  0  0  0  0  0  0  0
   -9.6982  -16.4782   11.8964 N   0  0  0  0  0  0  0  0  0  0  0  0
   -8.3665  -16.2992   11.7944 C   0  0  0  0  0  0  0  0  0  0  0  0
   -7.6328  -17.2594   11.6587 O   0  0  0  0  0  0  0  0  0  0  0  0
   -7.7975  -14.9368   11.8479 C   0  0  0  0  0  0  0  0  0  0  0  0
   -8.6217  -13.8186   11.7138 C   0  0  0  0  0  0  0  0  0  0  0  0
   -8.1184  -12.6023   11.7616 N   0  0  0  0  0  0  0  0  0  0  0  0
   -6.8290  -12.3877   11.9338 C   0  0  0  0  0  0  0  0  0  0  0  0
   -5.9402  -13.4455   12.0760 C   0  0  0  0  0  0  0  0  0  0  0  0
   -4.6139  -13.2095   12.2536 O   0  0  0  0  0  0  0  0  0  0  0  0
   -6.4240  -14.7460   12.0384 C   0  0  0  0  0  0  0  0  0  0  0  0
  1  2  1  0
  2  3  2  0
  2  4  1  0
  4  5  2  0
  4  8  1  0
  5  6  1  0
  6  7  2  0
  6  9  1  0
  7  8  1  0
  9 10  1  0
 10 11  2  0
 10 12  1  0
 12 13  2  0
 12 18  1  0
 13 14  1  0
 14 15  2  0
 15 16  1  0
 16 17  1  0
 16 18  2  0
M  END
>  <Gold.Gold.Protein.RotatedWaterAtoms>  (809) 


>  <Gold.Id.Protein>  (809) 


>  <Gold.PLP.Chemscore.CHOScore>  (809) 
1.0000

>  <Gold.PLP.Chemscore.Hbond>  (809) 
3.1680

>  <Gold.PLP.Chemscore.Internal.Correction>  (809) 
0.0006

>  <Gold.PLP.Chemscore.Metal>  (809) 
0.0000

>  <Gold.PLP.Fitness>  (809) 
51.1092

>  <Gold.PLP.PLP>  (809) 
-38.9170

>  <Gold.PLP.ligand.clash>  (809) 
0.0000

>  <Gold.PLP.ligand.torsion>  (809) 
0.1562

>  <Gold.PLP.part.buried>  (809) 
-9.2615

>  <Gold.PLP.part.hbond>  (809) 
-5.0501

>  <Gold.PLP.part.metal>  (809) 
0.0000

>  <Gold.PLP.part.nonpolar>  (809) 
-24.7657

>  <Gold.PLP.part.repulsive>  (809) 
0.3773

>  <Gold.Protein.RotatedAtoms>  (809) 


>  <Gold.Protein.RotatedTorsions>  (809) 


>  <Gold.Protein.RotatedWaterAtoms>  (809) 


>  <Gold.Version>  (809) 
5.3.0

>  <PLP.Chemscore.CHOScore>  (809) 


>  <PLP.Chemscore.Hbond>  (809) 


>  <PLP.Chemscore.Internal.Correction>  (809) 


>  <PLP.Chemscore.Metal>  (809) 


>  <PLP.Fitness>  (809) 


>  <PLP.PLP>  (809) 


>  <PLP.ligand.clash>  (809) 


>  <PLP.ligand.torsion>  (809) 


>  <PLP.part.buried>  (809) 


>  <PLP.part.hbond>  (809) 


>  <PLP.part.metal>  (809) 


>  <PLP.part.nonpolar>  (809) 


>  <PLP.part.repulsive>  (809) 


>  <Version>  (809) 


$$$$
3809|Compound_1501|Compounds_3D_F|sdf|464|dock10|1
     RDKit          3D

 19 21  0  0  0  0  0  0  0  0999 V2000
   -4.7050  -13.2291   12.2038 O   0  0  0  0  0  0  0  0  0  0  0  0
   -6.0343  -13.5074   12.1556 C   0  0  0  0  0  0  0  0  0  0  0  0
   -6.4725  -14.8057   11.9305 C   0  0  0  0  0  0  0  0  0  0  0  0
   -7.8512  -15.0419   11.8905 C   0  0  0  0  0  0  0  0  0  0  0  0
   -8.7250  -13.9711   12.0771 C   0  0  0  0  0  0  0  0  0  0  0  0
   -8.2639  -12.7555   12.2873 N   0  0  0  0  0  0  0  0  0  0  0  0
   -6.9713  -12.4988   12.3375 C   0  0  0  0  0  0  0  0  0  0  0  0
   -8.3728  -16.4045   11.6541 C   0  0  0  0  0  0  0  0  0  0  0  0
   -7.6028  -17.3314   11.4926 O   0  0  0  0  0  0  0  0  0  0  0  0
   -9.7029  -16.6197   11.6176 N   0  0  0  0  0  0  0  0  0  0  0  0
  -10.1930  -17.8993   11.3952 C   0  0  0  0  0  0  0  0  0  0  0  0
  -10.9485  -18.5057   12.3045 N   0  0  0  0  0  0  0  0  0  0  0  0
  -11.4196  -19.7237   12.1020 C   0  0  0  0  0  0  0  0  0  0  0  0
  -11.1748  -20.4032   11.0029 N   0  0  0  0  0  0  0  0  0  0  0  0
  -10.4255  -19.8752   10.0331 C   0  0  0  0  0  0  0  0  0  0  0  0
   -9.9088  -18.5778   10.2058 C   0  0  0  0  0  0  0  0  0  0  0  0
   -9.1971  -18.3145    9.0666 N   0  0  0  0  0  0  0  0  0  0  0  0
   -9.2806  -19.3457    8.2959 N   0  0  0  0  0  0  0  0  0  0  0  0
   -9.9953  -20.2770    8.8250 N   0  0  0  0  0  0  0  0  0  0  0  0
  1  2  1  0
  2  3  2  0
  2  7  1  0
  3  4  1  0
  4  5  2  0
  4  8  1  0
  5  6  1  0
  6  7  2  0
  8  9  2  0
  8 10  1  0
 10 11  1  0
 11 12  2  0
 11 16  1  0
 12 13  1  0
 13 14  2  0
 14 15  1  0
 15 16  2  0
 15 19  1  0
 16 17  1  0
 17 18  1  0
 18 19  2  0
M  END
>  <Gold.Gold.Protein.RotatedWaterAtoms>  (810) 


>  <Gold.Id.Protein>  (810) 


>  <Gold.PLP.Chemscore.CHOScore>  (810) 
1.0000

>  <Gold.PLP.Chemscore.Hbond>  (810) 
3.0380

>  <Gold.PLP.Chemscore.Internal.Correction>  (810) 
0.3004

>  <Gold.PLP.Chemscore.Metal>  (810) 
0.0000

>  <Gold.PLP.Fitness>  (810) 
50.2959

>  <Gold.PLP.PLP>  (810) 
-39.0361

>  <Gold.PLP.ligand.clash>  (810) 
0.0000

>  <Gold.PLP.ligand.torsion>  (810) 
0.5772

>  <Gold.PLP.part.buried>  (810) 
-8.0558

>  <Gold.PLP.part.hbond>  (810) 
-5.3751

>  <Gold.PLP.part.metal>  (810) 
0.0000

>  <Gold.PLP.part.nonpolar>  (810) 
-25.7337

>  <Gold.PLP.part.repulsive>  (810) 
0.3392

>  <Gold.Protein.RotatedAtoms>  (810) 


>  <Gold.Protein.RotatedTorsions>  (810) 


>  <Gold.Protein.RotatedWaterAtoms>  (810) 


>  <Gold.Version>  (810) 
5.3.0

>  <PLP.Chemscore.CHOScore>  (810) 


>  <PLP.Chemscore.Hbond>  (810) 


>  <PLP.Chemscore.Internal.Correction>  (810) 


>  <PLP.Chemscore.Metal>  (810) 


>  <PLP.Fitness>  (810) 


>  <PLP.PLP>  (810) 


>  <PLP.ligand.clash>  (810) 


>  <PLP.ligand.torsion>  (810) 


>  <PLP.part.buried>  (810) 


>  <PLP.part.hbond>  (810) 


>  <PLP.part.metal>  (810) 


>  <PLP.part.nonpolar>  (810) 


>  <PLP.part.repulsive>  (810) 


>  <Version>  (810) 


$$$$
3810|Compound_1542|Compounds_3D_F|sdf|473|dock10|1
     RDKit          3D

 28 31  0  0  0  0  0  0  0  0999 V2000
   -8.4220  -18.8889    7.5357 O   0  0  0  0  0  0  0  0  0  0  0  0
   -8.5246  -18.3302    8.7657 C   0  0  0  0  0  0  0  0  0  0  0  0
   -9.3647  -18.8248    9.6652 N   0  0  0  0  0  0  0  0  0  0  0  0
   -9.4724  -18.2858   10.8727 C   0  0  0  0  0  0  0  0  0  0  0  0
   -8.7583  -17.2361   11.2441 N   0  0  0  0  0  0  0  0  0  0  0  0
   -7.8933  -16.6778   10.4043 C   0  0  0  0  0  0  0  0  0  0  0  0
   -7.7419  -17.2193    9.1168 C   0  0  0  0  0  0  0  0  0  0  0  0
   -6.8108  -16.4714    8.4760 N   0  0  0  0  0  0  0  0  0  0  0  0
   -6.3912  -15.5290    9.2689 C   0  0  0  0  0  0  0  0  0  0  0  0
   -7.0270  -15.6158   10.4726 N   0  0  0  0  0  0  0  0  0  0  0  0
   -6.8263  -14.7339   11.6248 C   0  0  0  0  0  0  0  0  0  0  0  0
   -7.5999  -13.5232   11.4715 O   0  0  0  0  0  0  0  0  0  0  0  0
   -6.9747  -12.5596   12.3476 C   0  0  0  0  0  0  0  0  0  0  0  0
   -7.3465  -11.1365   11.9243 C   0  0  0  0  0  0  0  0  0  0  0  0
   -6.4244  -10.2107   12.5043 O   0  0  0  0  0  0  0  0  0  0  0  0
   -5.4576  -12.7947   12.1754 C   0  0  0  0  0  0  0  0  0  0  0  0
   -4.7817  -12.6319   13.4233 O   0  0  0  0  0  0  0  0  0  0  0  0
   -5.3570  -14.2605   11.6915 C   0  0  0  0  0  0  0  0  0  0  0  0
   -4.6161  -15.0480   12.6254 O   0  0  0  0  0  0  0  0  0  0  0  0
  -10.3662  -18.8430   11.7783 N   0  0  0  0  0  0  0  0  0  0  0  0
  -10.3247  -20.1645   12.0410 C   0  0  0  0  0  0  0  0  0  0  0  0
   -9.5029  -20.8679   11.4866 O   0  0  0  0  0  0  0  0  0  0  0  0
  -11.2776  -20.7583   13.0067 C   0  0  0  0  0  0  0  0  0  0  0  0
  -10.8880  -21.8034   13.8501 C   0  0  0  0  0  0  0  0  0  0  0  0
  -11.8096  -22.3283   14.7357 C   0  0  0  0  0  0  0  0  0  0  0  0
  -13.0389  -21.8568   14.7910 N   0  0  0  0  0  0  0  0  0  0  0  0
  -13.4473  -20.8731   14.0136 C   0  0  0  0  0  0  0  0  0  0  0  0
  -12.5900  -20.2864   13.1033 C   0  0  0  0  0  0  0  0  0  0  0  0
  1  2  1  0
  2  3  2  0
  2  7  1  0
  3  4  1  0
  4  5  2  0
  4 20  1  0
  5  6  1  0
  6  7  2  0
  6 10  1  0
  7  8  1  0
  8  9  2  0
  9 10  1  0
 10 11  1  0
 11 12  1  0
 11 18  1  0
 12 13  1  0
 13 14  1  0
 13 16  1  0
 14 15  1  0
 16 17  1  0
 16 18  1  0
 18 19  1  0
 20 21  1  0
 21 22  2  0
 21 23  1  0
 23 24  2  0
 23 28  1  0
 24 25  1  0
 25 26  2  0
 26 27  1  0
 27 28  2  0
M  END
>  <Gold.Gold.Protein.RotatedWaterAtoms>  (811) 


>  <Gold.Id.Protein>  (811) 


>  <Gold.PLP.Chemscore.CHOScore>  (811) 
1.5980

>  <Gold.PLP.Chemscore.Hbond>  (811) 
2.9193

>  <Gold.PLP.Chemscore.Internal.Correction>  (811) 
0.4574

>  <Gold.PLP.Chemscore.Metal>  (811) 
0.0000

>  <Gold.PLP.Fitness>  (811) 
59.9695

>  <Gold.PLP.PLP>  (811) 
-49.5161

>  <Gold.PLP.ligand.clash>  (811) 
0.0000

>  <Gold.PLP.ligand.torsion>  (811) 
1.7778

>  <Gold.PLP.part.buried>  (811) 
-7.3877

>  <Gold.PLP.part.hbond>  (811) 
-5.8670

>  <Gold.PLP.part.metal>  (811) 
0.0000

>  <Gold.PLP.part.nonpolar>  (811) 
-38.5226

>  <Gold.PLP.part.repulsive>  (811) 
0.3724

>  <Gold.Protein.RotatedAtoms>  (811) 


>  <Gold.Protein.RotatedTorsions>  (811) 


>  <Gold.Protein.RotatedWaterAtoms>  (811) 


>  <Gold.Version>  (811) 
5.3.0

>  <PLP.Chemscore.CHOScore>  (811) 


>  <PLP.Chemscore.Hbond>  (811) 


>  <PLP.Chemscore.Internal.Correction>  (811) 


>  <PLP.Chemscore.Metal>  (811) 


>  <PLP.Fitness>  (811) 


>  <PLP.PLP>  (811) 


>  <PLP.ligand.clash>  (811) 


>  <PLP.ligand.torsion>  (811) 


>  <PLP.part.buried>  (811) 


>  <PLP.part.hbond>  (811) 


>  <PLP.part.metal>  (811) 


>  <PLP.part.nonpolar>  (811) 


>  <PLP.part.repulsive>  (811) 


>  <Version>  (811) 


$$$$
3811|Compound_1592|Compounds_3D_F|sdf|481|dock10|1
     RDKit          3D

 26 28  0  0  0  0  0  0  0  0999 V2000
   -9.2387  -19.3222    8.6146 O   0  0  0  0  0  0  0  0  0  0  0  0
   -9.5260  -18.4939    9.6445 C   0  0  0  0  0  0  0  0  0  0  0  0
  -10.7137  -18.6621   10.4018 C   0  0  0  0  0  0  0  0  0  0  0  0
  -11.5864  -19.6315   10.1353 N   0  0  0  0  0  0  0  0  0  0  0  0
  -12.6729  -19.7464   10.8665 C   0  0  0  0  0  0  0  0  0  0  0  0
  -12.9198  -18.8633   11.9173 C   0  0  0  0  0  0  0  0  0  0  0  0
  -12.0711  -17.8982   12.1985 N   0  0  0  0  0  0  0  0  0  0  0  0
  -10.9607  -17.7631   11.4692 C   0  0  0  0  0  0  0  0  0  0  0  0
  -10.0672  -16.7974   11.7173 N   0  0  0  0  0  0  0  0  0  0  0  0
   -8.9790  -16.6873   10.9804 C   0  0  0  0  0  0  0  0  0  0  0  0
   -8.7050  -17.5116    9.9727 N   0  0  0  0  0  0  0  0  0  0  0  0
   -8.0794  -15.6728   11.2719 N   0  0  0  0  0  0  0  0  0  0  0  0
   -8.5296  -14.4389   11.5745 C   0  0  0  0  0  0  0  0  0  0  0  0
   -9.7242  -14.2162   11.5916 O   0  0  0  0  0  0  0  0  0  0  0  0
   -7.5698  -13.3552   11.8855 C   0  0  0  0  0  0  0  0  0  0  0  0
   -7.9663  -12.0150   11.8627 C   0  0  0  0  0  0  0  0  0  0  0  0
   -7.0377  -11.0361   12.1598 C   0  0  0  0  0  0  0  0  0  0  0  0
   -5.7944  -11.3530   12.4626 N   0  0  0  0  0  0  0  0  0  0  0  0
   -5.3794  -12.6035   12.4957 C   0  0  0  0  0  0  0  0  0  0  0  0
   -6.2424  -13.6447   12.2170 C   0  0  0  0  0  0  0  0  0  0  0  0
  -13.6614  -20.8434   10.5651 C   0  0  0  0  0  0  0  0  0  0  0  0
  -13.1436  -22.0915   11.0279 O   0  0  0  0  0  0  0  0  0  0  0  0
  -13.8983  -20.9171    9.0560 C   0  0  0  0  0  0  0  0  0  0  0  0
  -14.1827  -19.6096    8.5539 O   0  0  0  0  0  0  0  0  0  0  0  0
  -15.0832  -21.8422    8.7696 C   0  0  0  0  0  0  0  0  0  0  0  0
  -15.4663  -21.7151    7.3987 O   0  0  0  0  0  0  0  0  0  0  0  0
  1  2  1  0
  2  3  2  0
  2 11  1  0
  3  4  1  0
  3  8  1  0
  4  5  2  0
  5  6  1  0
  5 21  1  0
  6  7  2  0
  7  8  1  0
  8  9  2  0
  9 10  1  0
 10 11  2  0
 10 12  1  0
 12 13  1  0
 13 14  2  0
 13 15  1  0
 15 16  2  0
 15 20  1  0
 16 17  1  0
 17 18  2  0
 18 19  1  0
 19 20  2  0
 21 22  1  0
 21 23  1  0
 23 24  1  0
 23 25  1  0
 25 26  1  0
M  END
>  <Gold.Gold.Protein.RotatedWaterAtoms>  (812) 


>  <Gold.Id.Protein>  (812) 


>  <Gold.PLP.Chemscore.CHOScore>  (812) 
1.6283

>  <Gold.PLP.Chemscore.Hbond>  (812) 
3.4147

>  <Gold.PLP.Chemscore.Internal.Correction>  (812) 
0.4582

>  <Gold.PLP.Chemscore.Metal>  (812) 
0.0000

>  <Gold.PLP.Fitness>  (812) 
67.4664

>  <Gold.PLP.PLP>  (812) 
-53.9040

>  <Gold.PLP.ligand.clash>  (812) 
0.0000

>  <Gold.PLP.ligand.torsion>  (812) 
1.0124

>  <Gold.PLP.part.buried>  (812) 
-8.6323

>  <Gold.PLP.part.hbond>  (812) 
-7.8323

>  <Gold.PLP.part.metal>  (812) 
0.0000

>  <Gold.PLP.part.nonpolar>  (812) 
-38.5495

>  <Gold.PLP.part.repulsive>  (812) 
0.5828

>  <Gold.Protein.RotatedAtoms>  (812) 


>  <Gold.Protein.RotatedTorsions>  (812) 


>  <Gold.Protein.RotatedWaterAtoms>  (812) 


>  <Gold.Version>  (812) 
5.3.0

>  <PLP.Chemscore.CHOScore>  (812) 


>  <PLP.Chemscore.Hbond>  (812) 


>  <PLP.Chemscore.Internal.Correction>  (812) 


>  <PLP.Chemscore.Metal>  (812) 


>  <PLP.Fitness>  (812) 


>  <PLP.PLP>  (812) 


>  <PLP.ligand.clash>  (812) 


>  <PLP.ligand.torsion>  (812) 


>  <PLP.part.buried>  (812) 


>  <PLP.part.hbond>  (812) 


>  <PLP.part.metal>  (812) 


>  <PLP.part.nonpolar>  (812) 


>  <PLP.part.repulsive>  (812) 


>  <Version>  (812) 


$$$$
3812|Compound_1617|Compounds_3D_F|sdf|485|dock10|1
     RDKit          3D

 25 28  0  0  0  0  0  0  0  0999 V2000
  -13.9027  -20.0644   14.1143 O   0  0  0  0  0  0  0  0  0  0  0  0
  -13.1249  -20.5023   13.0968 C   0  0  0  0  0  0  0  0  0  0  0  0
  -13.5206  -21.6040   12.3130 C   0  0  0  0  0  0  0  0  0  0  0  0
  -14.5890  -22.4202   12.3183 N   0  0  0  0  0  0  0  0  0  0  0  0
  -14.4828  -23.2940   11.3795 N   0  0  0  0  0  0  0  0  0  0  0  0
  -13.2842  -23.0836   10.6804 N   0  0  0  0  0  0  0  0  0  0  0  0
  -12.6706  -22.0132   11.2686 C   0  0  0  0  0  0  0  0  0  0  0  0
  -11.5358  -21.3544   11.0603 N   0  0  0  0  0  0  0  0  0  0  0  0
  -11.2050  -20.3255   11.8214 C   0  0  0  0  0  0  0  0  0  0  0  0
  -11.9788  -19.9006   12.8127 N   0  0  0  0  0  0  0  0  0  0  0  0
  -10.0107  -19.6628   11.5726 N   0  0  0  0  0  0  0  0  0  0  0  0
   -9.9286  -18.3305   11.7571 C   0  0  0  0  0  0  0  0  0  0  0  0
  -10.8991  -17.7092   12.1426 O   0  0  0  0  0  0  0  0  0  0  0  0
   -8.6519  -17.6221   11.4905 C   0  0  0  0  0  0  0  0  0  0  0  0
   -7.6136  -18.2736   10.9689 N   0  0  0  0  0  0  0  0  0  0  0  0
   -6.4774  -17.6537   10.7283 C   0  0  0  0  0  0  0  0  0  0  0  0
   -6.3111  -16.3731   10.9879 N   0  0  0  0  0  0  0  0  0  0  0  0
   -7.2968  -15.6473   11.5086 C   0  0  0  0  0  0  0  0  0  0  0  0
   -8.5232  -16.2653   11.7760 C   0  0  0  0  0  0  0  0  0  0  0  0
   -7.0993  -14.2066   11.7974 C   0  0  0  0  0  0  0  0  0  0  0  0
   -8.1523  -13.3087   11.6323 C   0  0  0  0  0  0  0  0  0  0  0  0
   -7.9626  -11.9687   11.9027 C   0  0  0  0  0  0  0  0  0  0  0  0
   -6.7304  -11.5166   12.3399 C   0  0  0  0  0  0  0  0  0  0  0  0
   -5.6814  -12.4033   12.5072 C   0  0  0  0  0  0  0  0  0  0  0  0
   -5.8616  -13.7457   12.2440 C   0  0  0  0  0  0  0  0  0  0  0  0
  1  2  1  0
  2  3  2  0
  2 10  1  0
  3  4  1  0
  3  7  1  0
  4  5  2  0
  5  6  1  0
  6  7  1  0
  7  8  2  0
  8  9  1  0
  9 10  2  0
  9 11  1  0
 11 12  1  0
 12 13  2  0
 12 14  1  0
 14 15  2  0
 14 19  1  0
 15 16  1  0
 16 17  2  0
 17 18  1  0
 18 19  2  0
 18 20  1  0
 20 21  2  0
 20 25  1  0
 21 22  1  0
 22 23  2  0
 23 24  1  0
 24 25  2  0
M  END
>  <Gold.Gold.Protein.RotatedWaterAtoms>  (813) 


>  <Gold.Id.Protein>  (813) 


>  <Gold.PLP.Chemscore.CHOScore>  (813) 
0.0000

>  <Gold.PLP.Chemscore.Hbond>  (813) 
3.5263

>  <Gold.PLP.Chemscore.Internal.Correction>  (813) 
0.4010

>  <Gold.PLP.Chemscore.Metal>  (813) 
0.0000

>  <Gold.PLP.Fitness>  (813) 
62.4490

>  <Gold.PLP.PLP>  (813) 
-52.9756

>  <Gold.PLP.ligand.clash>  (813) 
0.0000

>  <Gold.PLP.ligand.torsion>  (813) 
0.7532

>  <Gold.PLP.part.buried>  (813) 
-10.6027

>  <Gold.PLP.part.hbond>  (813) 
-6.0065

>  <Gold.PLP.part.metal>  (813) 
0.0000

>  <Gold.PLP.part.nonpolar>  (813) 
-38.0333

>  <Gold.PLP.part.repulsive>  (813) 
0.3432

>  <Gold.Protein.RotatedAtoms>  (813) 


>  <Gold.Protein.RotatedTorsions>  (813) 


>  <Gold.Protein.RotatedWaterAtoms>  (813) 


>  <Gold.Version>  (813) 
5.3.0

>  <PLP.Chemscore.CHOScore>  (813) 


>  <PLP.Chemscore.Hbond>  (813) 


>  <PLP.Chemscore.Internal.Correction>  (813) 


>  <PLP.Chemscore.Metal>  (813) 


>  <PLP.Fitness>  (813) 


>  <PLP.PLP>  (813) 


>  <PLP.ligand.clash>  (813) 


>  <PLP.ligand.torsion>  (813) 


>  <PLP.part.buried>  (813) 


>  <PLP.part.hbond>  (813) 


>  <PLP.part.metal>  (813) 


>  <PLP.part.nonpolar>  (813) 


>  <PLP.part.repulsive>  (813) 


>  <Version>  (813) 


$$$$
3813|Compound_1631|Compounds_3D_F|sdf|492|dock10|1
     RDKit          3D

 18 19  0  0  0  0  0  0  0  0999 V2000
   -8.5219  -16.7777   11.3697 N   0  0  0  0  0  0  0  0  0  0  0  0
   -7.2504  -16.4142   11.6308 C   0  0  0  0  0  0  0  0  0  0  0  0
   -6.3640  -17.2434   11.6013 O   0  0  0  0  0  0  0  0  0  0  0  0
   -6.9348  -15.0004   11.9538 C   0  0  0  0  0  0  0  0  0  0  0  0
   -7.8388  -14.0428   11.7578 N   0  0  0  0  0  0  0  0  0  0  0  0
   -7.5619  -12.7892   12.0430 C   0  0  0  0  0  0  0  0  0  0  0  0
   -6.3916  -12.4267   12.5314 N   0  0  0  0  0  0  0  0  0  0  0  0
   -5.4409  -13.3165   12.7548 C   0  0  0  0  0  0  0  0  0  0  0  0
   -5.6870  -14.6536   12.4751 C   0  0  0  0  0  0  0  0  0  0  0  0
   -8.8195  -18.1056   11.0712 C   0  0  0  0  0  0  0  0  0  0  0  0
   -7.9609  -19.0170   10.7082 N   0  0  0  0  0  0  0  0  0  0  0  0
   -8.6707  -20.2264   10.5028 O   0  0  0  0  0  0  0  0  0  0  0  0
  -10.0374  -19.9711   10.7740 N   0  0  0  0  0  0  0  0  0  0  0  0
  -10.1500  -18.7186   11.1187 C   0  0  0  0  0  0  0  0  0  0  0  0
  -11.3359  -18.0712   11.4664 N   0  0  0  0  0  0  0  0  0  0  0  0
  -12.3208  -18.7538   12.0823 C   0  0  0  0  0  0  0  0  0  0  0  0
  -12.1765  -19.9315   12.3347 O   0  0  0  0  0  0  0  0  0  0  0  0
  -13.6022  -18.0544   12.4572 C   0  0  0  0  0  0  0  0  0  0  0  0
  1  2  1  0
  1 10  1  0
  2  3  2  0
  2  4  1  0
  4  5  2  0
  4  9  1  0
  5  6  1  0
  6  7  2  0
  7  8  1  0
  8  9  2  0
 10 11  2  0
 10 14  1  0
 11 12  1  0
 12 13  1  0
 13 14  2  0
 14 15  1  0
 15 16  1  0
 16 17  2  0
 16 18  1  0
M  END
>  <Gold.Gold.Protein.RotatedWaterAtoms>  (814) 


>  <Gold.Id.Protein>  (814) 


>  <Gold.PLP.Chemscore.CHOScore>  (814) 
1.0000

>  <Gold.PLP.Chemscore.Hbond>  (814) 
1.0000

>  <Gold.PLP.Chemscore.Internal.Correction>  (814) 
0.0017

>  <Gold.PLP.Chemscore.Metal>  (814) 
0.0000

>  <Gold.PLP.Fitness>  (814) 
40.9884

>  <Gold.PLP.PLP>  (814) 
-35.6739

>  <Gold.PLP.ligand.clash>  (814) 
0.0000

>  <Gold.PLP.ligand.torsion>  (814) 
0.3436

>  <Gold.PLP.part.buried>  (814) 
-9.1107

>  <Gold.PLP.part.hbond>  (814) 
-1.0000

>  <Gold.PLP.part.metal>  (814) 
0.0000

>  <Gold.PLP.part.nonpolar>  (814) 
-26.4374

>  <Gold.PLP.part.repulsive>  (814) 
0.4833

>  <Gold.Protein.RotatedAtoms>  (814) 


>  <Gold.Protein.RotatedTorsions>  (814) 


>  <Gold.Protein.RotatedWaterAtoms>  (814) 


>  <Gold.Version>  (814) 
5.3.0

>  <PLP.Chemscore.CHOScore>  (814) 


>  <PLP.Chemscore.Hbond>  (814) 


>  <PLP.Chemscore.Internal.Correction>  (814) 


>  <PLP.Chemscore.Metal>  (814) 


>  <PLP.Fitness>  (814) 


>  <PLP.PLP>  (814) 


>  <PLP.ligand.clash>  (814) 


>  <PLP.ligand.torsion>  (814) 


>  <PLP.part.buried>  (814) 


>  <PLP.part.hbond>  (814) 


>  <PLP.part.metal>  (814) 


>  <PLP.part.nonpolar>  (814) 


>  <PLP.part.repulsive>  (814) 


>  <Version>  (814) 


$$$$
3814|Compound_1661|Compounds_3D_F|sdf|502|dock10|1
     RDKit          3D

 19 20  0  0  0  0  0  0  0  0999 V2000
   -8.3793  -16.8878   11.4610 N   0  0  0  0  0  0  0  0  0  0  0  0
   -7.1196  -16.4231   11.5807 C   0  0  0  0  0  0  0  0  0  0  0  0
   -6.1783  -17.1702   11.4081 O   0  0  0  0  0  0  0  0  0  0  0  0
   -6.8844  -14.9982   11.9232 C   0  0  0  0  0  0  0  0  0  0  0  0
   -7.8875  -14.1245   11.9101 N   0  0  0  0  0  0  0  0  0  0  0  0
   -7.6829  -12.8609   12.2139 C   0  0  0  0  0  0  0  0  0  0  0  0
   -6.4887  -12.4073   12.5418 N   0  0  0  0  0  0  0  0  0  0  0  0
   -5.4405  -13.2122   12.5781 C   0  0  0  0  0  0  0  0  0  0  0  0
   -5.6075  -14.5542   12.2713 C   0  0  0  0  0  0  0  0  0  0  0  0
   -8.5978  -18.2101   11.1481 C   0  0  0  0  0  0  0  0  0  0  0  0
   -9.7979  -18.9179   11.2629 C   0  0  0  0  0  0  0  0  0  0  0  0
   -9.4499  -20.2239   10.8081 C   0  0  0  0  0  0  0  0  0  0  0  0
   -8.1909  -20.1779   10.4933 N   0  0  0  0  0  0  0  0  0  0  0  0
   -7.7058  -19.0858   10.6653 O   0  0  0  0  0  0  0  0  0  0  0  0
  -11.0985  -18.4343   11.7374 C   0  0  0  0  0  0  0  0  0  0  0  0
  -11.1888  -17.3356   12.2511 O   0  0  0  0  0  0  0  0  0  0  0  0
  -12.1950  -19.2073   11.6030 O   0  0  0  0  0  0  0  0  0  0  0  0
  -13.4664  -18.5259   11.4387 C   0  0  0  0  0  0  0  0  0  0  0  0
  -13.7966  -18.4130    9.9492 C   0  0  0  0  0  0  0  0  0  0  0  0
  1  2  1  0
  1 10  1  0
  2  3  2  0
  2  4  1  0
  4  5  2  0
  4  9  1  0
  5  6  1  0
  6  7  2  0
  7  8  1  0
  8  9  2  0
 10 11  2  0
 10 14  1  0
 11 12  1  0
 11 15  1  0
 12 13  2  0
 13 14  1  0
 15 16  2  0
 15 17  1  0
 17 18  1  0
 18 19  1  0
M  END
>  <Gold.Gold.Protein.RotatedWaterAtoms>  (815) 


>  <Gold.Id.Protein>  (815) 


>  <Gold.PLP.Chemscore.CHOScore>  (815) 
0.9995

>  <Gold.PLP.Chemscore.Hbond>  (815) 
2.0000

>  <Gold.PLP.Chemscore.Internal.Correction>  (815) 
0.0104

>  <Gold.PLP.Chemscore.Metal>  (815) 
0.0000

>  <Gold.PLP.Fitness>  (815) 
49.7356

>  <Gold.PLP.PLP>  (815) 
-42.2376

>  <Gold.PLP.ligand.clash>  (815) 
0.0000

>  <Gold.PLP.ligand.torsion>  (815) 
0.7554

>  <Gold.PLP.part.buried>  (815) 
-9.4875

>  <Gold.PLP.part.hbond>  (815) 
-2.0000

>  <Gold.PLP.part.metal>  (815) 
0.0000

>  <Gold.PLP.part.nonpolar>  (815) 
-31.3498

>  <Gold.PLP.part.repulsive>  (815) 
0.4346

>  <Gold.Protein.RotatedAtoms>  (815) 


>  <Gold.Protein.RotatedTorsions>  (815) 


>  <Gold.Protein.RotatedWaterAtoms>  (815) 


>  <Gold.Version>  (815) 
5.3.0

>  <PLP.Chemscore.CHOScore>  (815) 


>  <PLP.Chemscore.Hbond>  (815) 


>  <PLP.Chemscore.Internal.Correction>  (815) 


>  <PLP.Chemscore.Metal>  (815) 


>  <PLP.Fitness>  (815) 


>  <PLP.PLP>  (815) 


>  <PLP.ligand.clash>  (815) 


>  <PLP.ligand.torsion>  (815) 


>  <PLP.part.buried>  (815) 


>  <PLP.part.hbond>  (815) 


>  <PLP.part.metal>  (815) 


>  <PLP.part.nonpolar>  (815) 


>  <PLP.part.repulsive>  (815) 


>  <Version>  (815) 


$$$$
3815|Compound_1663|Compounds_3D_F|sdf|503|dock10|1
     RDKit          3D

 34 38  0  0  0  0  0  0  0  0999 V2000
  -10.5396  -17.8737   10.1160 N   0  0  0  0  0  0  0  0  0  0  0  0
  -11.4060  -18.3566   11.0290 C   0  0  0  0  0  0  0  0  0  0  0  0
  -11.1435  -18.2820   12.2133 O   0  0  0  0  0  0  0  0  0  0  0  0
  -12.6795  -18.9774   10.5888 C   0  0  0  0  0  0  0  0  0  0  0  0
  -12.9548  -19.1090    9.2927 N   0  0  0  0  0  0  0  0  0  0  0  0
  -14.0830  -19.6601    8.8983 C   0  0  0  0  0  0  0  0  0  0  0  0
  -14.9804  -20.1023    9.7572 N   0  0  0  0  0  0  0  0  0  0  0  0
  -14.7816  -20.0085   11.0611 C   0  0  0  0  0  0  0  0  0  0  0  0
  -13.6050  -19.4396   11.5254 C   0  0  0  0  0  0  0  0  0  0  0  0
   -9.3487  -17.2986   10.5278 C   0  0  0  0  0  0  0  0  0  0  0  0
   -9.1770  -16.0469   10.8837 N   0  0  0  0  0  0  0  0  0  0  0  0
   -7.8959  -15.8434   11.2219 C   0  0  0  0  0  0  0  0  0  0  0  0
   -7.2316  -16.9696   11.0862 N   0  0  0  0  0  0  0  0  0  0  0  0
   -8.1494  -17.9347   10.6414 N   0  0  0  0  0  0  0  0  0  0  0  0
   -7.8854  -19.2709   10.3648 C   0  0  0  0  0  0  0  0  0  0  0  0
   -8.8576  -20.1713   10.3716 N   0  0  0  0  0  0  0  0  0  0  0  0
   -8.6204  -21.4469   10.1101 C   0  0  0  0  0  0  0  0  0  0  0  0
   -7.4242  -21.9076    9.8298 N   0  0  0  0  0  0  0  0  0  0  0  0
   -6.3684  -21.0808    9.7964 C   0  0  0  0  0  0  0  0  0  0  0  0
   -6.5745  -19.7041   10.0640 C   0  0  0  0  0  0  0  0  0  0  0  0
   -5.4885  -18.8195   10.0357 C   0  0  0  0  0  0  0  0  0  0  0  0
   -4.2407  -19.2945    9.7500 C   0  0  0  0  0  0  0  0  0  0  0  0
   -3.1848  -18.4379    9.7228 O   0  0  0  0  0  0  0  0  0  0  0  0
   -3.2518  -17.2984   10.5821 C   0  0  0  0  0  0  0  0  0  0  0  0
   -4.0353  -20.6570    9.4845 C   0  0  0  0  0  0  0  0  0  0  0  0
   -2.7833  -21.1034    9.2026 O   0  0  0  0  0  0  0  0  0  0  0  0
   -2.6786  -22.2328    8.3341 C   0  0  0  0  0  0  0  0  0  0  0  0
   -5.0783  -21.5389    9.5008 C   0  0  0  0  0  0  0  0  0  0  0  0
   -7.3199  -14.5538   11.6768 C   0  0  0  0  0  0  0  0  0  0  0  0
   -8.0323  -13.4398   11.5664 N   0  0  0  0  0  0  0  0  0  0  0  0
   -7.5575  -12.2750   11.9581 C   0  0  0  0  0  0  0  0  0  0  0  0
   -6.2906  -12.1717   12.5014 C   0  0  0  0  0  0  0  0  0  0  0  0
   -5.5118  -13.3121   12.6356 C   0  0  0  0  0  0  0  0  0  0  0  0
   -6.0376  -14.5236   12.2205 C   0  0  0  0  0  0  0  0  0  0  0  0
  1  2  1  0
  1 10  1  0
  2  3  2  0
  2  4  1  0
  4  5  2  0
  4  9  1  0
  5  6  1  0
  6  7  2  0
  7  8  1  0
  8  9  2  0
 10 11  2  0
 10 14  1  0
 11 12  1  0
 12 13  2  0
 12 29  1  0
 13 14  1  0
 14 15  1  0
 15 16  2  0
 15 20  1  0
 16 17  1  0
 17 18  2  0
 18 19  1  0
 19 20  2  0
 19 28  1  0
 20 21  1  0
 21 22  2  0
 22 23  1  0
 22 25  1  0
 23 24  1  0
 25 26  1  0
 25 28  2  0
 26 27  1  0
 29 30  2  0
 29 34  1  0
 30 31  1  0
 31 32  2  0
 32 33  1  0
 33 34  2  0
M  END
>  <Gold.Gold.Protein.RotatedWaterAtoms>  (816) 


>  <Gold.Id.Protein>  (816) 


>  <Gold.PLP.Chemscore.CHOScore>  (816) 
2.0000

>  <Gold.PLP.Chemscore.Hbond>  (816) 
0.9913

>  <Gold.PLP.Chemscore.Internal.Correction>  (816) 
1.9479

>  <Gold.PLP.Chemscore.Metal>  (816) 
0.0000

>  <Gold.PLP.Fitness>  (816) 
64.2782

>  <Gold.PLP.PLP>  (816) 
-56.8981

>  <Gold.PLP.ligand.clash>  (816) 
0.0000

>  <Gold.PLP.ligand.torsion>  (816) 
1.7707

>  <Gold.PLP.part.buried>  (816) 
-7.5644

>  <Gold.PLP.part.hbond>  (816) 
-2.9857

>  <Gold.PLP.part.metal>  (816) 
0.0000

>  <Gold.PLP.part.nonpolar>  (816) 
-47.2322

>  <Gold.PLP.part.repulsive>  (816) 
0.4867

>  <Gold.Protein.RotatedAtoms>  (816) 


>  <Gold.Protein.RotatedTorsions>  (816) 


>  <Gold.Protein.RotatedWaterAtoms>  (816) 


>  <Gold.Version>  (816) 
5.3.0

>  <PLP.Chemscore.CHOScore>  (816) 


>  <PLP.Chemscore.Hbond>  (816) 


>  <PLP.Chemscore.Internal.Correction>  (816) 


>  <PLP.Chemscore.Metal>  (816) 


>  <PLP.Fitness>  (816) 


>  <PLP.PLP>  (816) 


>  <PLP.ligand.clash>  (816) 


>  <PLP.ligand.torsion>  (816) 


>  <PLP.part.buried>  (816) 


>  <PLP.part.hbond>  (816) 


>  <PLP.part.metal>  (816) 


>  <PLP.part.nonpolar>  (816) 


>  <PLP.part.repulsive>  (816) 


>  <Version>  (816) 


$$$$
3816|Compound_1701|Compounds_3D_F|sdf|508|dock10|1
     RDKit          3D

 19 20  0  0  0  0  0  0  0  0999 V2000
   -7.9868  -16.6103   11.9015 N   0  0  0  0  0  0  0  0  0  0  0  0
   -8.2514  -15.2906   11.8263 C   0  0  0  0  0  0  0  0  0  0  0  0
   -9.3538  -14.9104   11.4812 O   0  0  0  0  0  0  0  0  0  0  0  0
   -7.2099  -14.3147   12.1606 C   0  0  0  0  0  0  0  0  0  0  0  0
   -7.3037  -12.9576   12.0617 C   0  0  0  0  0  0  0  0  0  0  0  0
   -6.1375  -12.4440   12.4633 N   0  0  0  0  0  0  0  0  0  0  0  0
   -5.3374  -13.4191   12.8021 C   0  0  0  0  0  0  0  0  0  0  0  0
   -5.9706  -14.5849   12.6326 O   0  0  0  0  0  0  0  0  0  0  0  0
   -8.5043  -12.1795   11.5861 C   0  0  0  0  0  0  0  0  0  0  0  0
   -8.9644  -17.5282   11.5824 C   0  0  0  0  0  0  0  0  0  0  0  0
   -8.7688  -18.7779   11.2124 N   0  0  0  0  0  0  0  0  0  0  0  0
   -9.9052  -19.3413   10.9954 N   0  0  0  0  0  0  0  0  0  0  0  0
  -10.8693  -18.4757   11.2176 C   0  0  0  0  0  0  0  0  0  0  0  0
  -10.2896  -17.3138   11.5992 O   0  0  0  0  0  0  0  0  0  0  0  0
  -12.3095  -18.7253   11.0833 C   0  0  0  0  0  0  0  0  0  0  0  0
  -13.0902  -18.2198   11.8670 O   0  0  0  0  0  0  0  0  0  0  0  0
  -12.7673  -19.5154   10.0901 O   0  0  0  0  0  0  0  0  0  0  0  0
  -14.1958  -19.4864    9.8310 C   0  0  0  0  0  0  0  0  0  0  0  0
  -14.5131  -20.3786    8.6292 C   0  0  0  0  0  0  0  0  0  0  0  0
  1  2  1  0
  1 10  1  0
  2  3  2  0
  2  4  1  0
  4  5  2  0
  4  8  1  0
  5  6  1  0
  5  9  1  0
  6  7  2  0
  7  8  1  0
 10 11  2  0
 10 14  1  0
 11 12  1  0
 12 13  2  0
 13 14  1  0
 13 15  1  0
 15 16  2  0
 15 17  1  0
 17 18  1  0
 18 19  1  0
M  END
>  <Gold.Gold.Protein.RotatedWaterAtoms>  (817) 


>  <Gold.Id.Protein>  (817) 


>  <Gold.PLP.Chemscore.CHOScore>  (817) 
1.0000

>  <Gold.PLP.Chemscore.Hbond>  (817) 
1.0000

>  <Gold.PLP.Chemscore.Internal.Correction>  (817) 
0.0162

>  <Gold.PLP.Chemscore.Metal>  (817) 
0.0000

>  <Gold.PLP.Fitness>  (817) 
46.6592

>  <Gold.PLP.PLP>  (817) 
-42.2634

>  <Gold.PLP.ligand.clash>  (817) 
0.0000

>  <Gold.PLP.ligand.torsion>  (817) 
0.8102

>  <Gold.PLP.part.buried>  (817) 
-9.6967

>  <Gold.PLP.part.hbond>  (817) 
-1.9957

>  <Gold.PLP.part.metal>  (817) 
0.0000

>  <Gold.PLP.part.nonpolar>  (817) 
-31.3016

>  <Gold.PLP.part.repulsive>  (817) 
0.7609

>  <Gold.Protein.RotatedAtoms>  (817) 


>  <Gold.Protein.RotatedTorsions>  (817) 


>  <Gold.Protein.RotatedWaterAtoms>  (817) 


>  <Gold.Version>  (817) 
5.3.0

>  <PLP.Chemscore.CHOScore>  (817) 


>  <PLP.Chemscore.Hbond>  (817) 


>  <PLP.Chemscore.Internal.Correction>  (817) 


>  <PLP.Chemscore.Metal>  (817) 


>  <PLP.Fitness>  (817) 


>  <PLP.PLP>  (817) 


>  <PLP.ligand.clash>  (817) 


>  <PLP.ligand.torsion>  (817) 


>  <PLP.part.buried>  (817) 


>  <PLP.part.hbond>  (817) 


>  <PLP.part.metal>  (817) 


>  <PLP.part.nonpolar>  (817) 


>  <PLP.part.repulsive>  (817) 


>  <Version>  (817) 


$$$$
3817|Compound_1705|Compounds_3D_F|sdf|511|dock10|1
     RDKit          3D

 17 18  0  0  0  0  0  0  0  0999 V2000
  -13.8645  -19.9311   11.9345 O   0  0  0  0  0  0  0  0  0  0  0  0
  -13.1302  -18.8364   12.2134 C   0  0  0  0  0  0  0  0  0  0  0  0
  -13.6351  -17.8994   12.7999 O   0  0  0  0  0  0  0  0  0  0  0  0
  -11.7129  -18.7750   11.8055 C   0  0  0  0  0  0  0  0  0  0  0  0
  -10.8803  -17.7809   12.0418 N   0  0  0  0  0  0  0  0  0  0  0  0
   -9.6854  -18.0637   11.5323 C   0  0  0  0  0  0  0  0  0  0  0  0
   -9.7311  -19.2468   10.9573 N   0  0  0  0  0  0  0  0  0  0  0  0
  -11.0378  -19.7322   11.1267 N   0  0  0  0  0  0  0  0  0  0  0  0
   -8.5611  -17.2366   11.5955 N   0  0  0  0  0  0  0  0  0  0  0  0
   -8.7009  -15.9298   11.8972 C   0  0  0  0  0  0  0  0  0  0  0  0
   -9.8070  -15.4710   12.1140 O   0  0  0  0  0  0  0  0  0  0  0  0
   -7.5207  -15.0618   11.9642 C   0  0  0  0  0  0  0  0  0  0  0  0
   -7.5146  -13.7023   12.0647 C   0  0  0  0  0  0  0  0  0  0  0  0
   -6.2376  -13.3081   12.0965 N   0  0  0  0  0  0  0  0  0  0  0  0
   -5.4666  -14.3588   12.0202 C   0  0  0  0  0  0  0  0  0  0  0  0
   -6.2254  -15.4559   11.9427 O   0  0  0  0  0  0  0  0  0  0  0  0
   -8.7262  -12.8079   12.1276 C   0  0  0  0  0  0  0  0  0  0  0  0
  1  2  1  0
  2  3  2  0
  2  4  1  0
  4  5  2  0
  4  8  1  0
  5  6  1  0
  6  7  2  0
  6  9  1  0
  7  8  1  0
  9 10  1  0
 10 11  2  0
 10 12  1  0
 12 13  2  0
 12 16  1  0
 13 14  1  0
 13 17  1  0
 14 15  2  0
 15 16  1  0
M  END
>  <Gold.Gold.Protein.RotatedWaterAtoms>  (818) 


>  <Gold.Id.Protein>  (818) 


>  <Gold.PLP.Chemscore.CHOScore>  (818) 
1.6657

>  <Gold.PLP.Chemscore.Hbond>  (818) 
2.2763

>  <Gold.PLP.Chemscore.Internal.Correction>  (818) 
0.0001

>  <Gold.PLP.Chemscore.Metal>  (818) 
0.0000

>  <Gold.PLP.Fitness>  (818) 
45.8888

>  <Gold.PLP.PLP>  (818) 
-34.2854

>  <Gold.PLP.ligand.clash>  (818) 
0.0000

>  <Gold.PLP.ligand.torsion>  (818) 
0.1113

>  <Gold.PLP.part.buried>  (818) 
-9.3791

>  <Gold.PLP.part.hbond>  (818) 
-2.9348

>  <Gold.PLP.part.metal>  (818) 
0.0000

>  <Gold.PLP.part.nonpolar>  (818) 
-22.6621

>  <Gold.PLP.part.repulsive>  (818) 
0.7250

>  <Gold.Protein.RotatedAtoms>  (818) 


>  <Gold.Protein.RotatedTorsions>  (818) 


>  <Gold.Protein.RotatedWaterAtoms>  (818) 


>  <Gold.Version>  (818) 
5.3.0

>  <PLP.Chemscore.CHOScore>  (818) 


>  <PLP.Chemscore.Hbond>  (818) 


>  <PLP.Chemscore.Internal.Correction>  (818) 


>  <PLP.Chemscore.Metal>  (818) 


>  <PLP.Fitness>  (818) 


>  <PLP.PLP>  (818) 


>  <PLP.ligand.clash>  (818) 


>  <PLP.ligand.torsion>  (818) 


>  <PLP.part.buried>  (818) 


>  <PLP.part.hbond>  (818) 


>  <PLP.part.metal>  (818) 


>  <PLP.part.nonpolar>  (818) 


>  <PLP.part.repulsive>  (818) 


>  <Version>  (818) 


$$$$
3818|Compound_1706|Compounds_3D_F|sdf|512|dock10|1
     RDKit          3D

 19 21  0  0  0  0  0  0  0  0999 V2000
   -8.7007  -20.8634   10.3972 O   0  0  0  0  0  0  0  0  0  0  0  0
   -9.5941  -20.0499   11.0071 C   0  0  0  0  0  0  0  0  0  0  0  0
  -10.7729  -20.5739   11.5731 C   0  0  0  0  0  0  0  0  0  0  0  0
  -11.2939  -21.8094   11.6726 N   0  0  0  0  0  0  0  0  0  0  0  0
  -12.4207  -21.7657   12.2935 N   0  0  0  0  0  0  0  0  0  0  0  0
  -12.7053  -20.4389   12.6486 N   0  0  0  0  0  0  0  0  0  0  0  0
  -11.6640  -19.6791   12.1944 C   0  0  0  0  0  0  0  0  0  0  0  0
  -11.3667  -18.3844   12.2258 N   0  0  0  0  0  0  0  0  0  0  0  0
  -10.2473  -17.9379   11.6814 C   0  0  0  0  0  0  0  0  0  0  0  0
   -9.3760  -18.7454   11.0904 N   0  0  0  0  0  0  0  0  0  0  0  0
   -9.9717  -16.5793   11.7353 N   0  0  0  0  0  0  0  0  0  0  0  0
   -8.6969  -16.1535   11.8413 C   0  0  0  0  0  0  0  0  0  0  0  0
   -7.7883  -16.9610   11.8888 O   0  0  0  0  0  0  0  0  0  0  0  0
   -8.4058  -14.7176   11.8978 C   0  0  0  0  0  0  0  0  0  0  0  0
   -7.1996  -14.1414   12.1715 C   0  0  0  0  0  0  0  0  0  0  0  0
   -7.3681  -12.8167   12.1233 N   0  0  0  0  0  0  0  0  0  0  0  0
   -8.6153  -12.5564   11.8324 C   0  0  0  0  0  0  0  0  0  0  0  0
   -9.2792  -13.7064   11.6824 O   0  0  0  0  0  0  0  0  0  0  0  0
   -5.9138  -14.8667   12.4755 C   0  0  0  0  0  0  0  0  0  0  0  0
  1  2  1  0
  2  3  2  0
  2 10  1  0
  3  4  1  0
  3  7  1  0
  4  5  2  0
  5  6  1  0
  6  7  1  0
  7  8  2  0
  8  9  1  0
  9 10  2  0
  9 11  1  0
 11 12  1  0
 12 13  2  0
 12 14  1  0
 14 15  2  0
 14 18  1  0
 15 16  1  0
 15 19  1  0
 16 17  2  0
 17 18  1  0
M  END
>  <Gold.Gold.Protein.RotatedWaterAtoms>  (819) 


>  <Gold.Id.Protein>  (819) 


>  <Gold.PLP.Chemscore.CHOScore>  (819) 
0.0000

>  <Gold.PLP.Chemscore.Hbond>  (819) 
2.0000

>  <Gold.PLP.Chemscore.Internal.Correction>  (819) 
0.4005

>  <Gold.PLP.Chemscore.Metal>  (819) 
0.0000

>  <Gold.PLP.Fitness>  (819) 
41.2939

>  <Gold.PLP.PLP>  (819) 
-35.4184

>  <Gold.PLP.ligand.clash>  (819) 
0.0000

>  <Gold.PLP.ligand.torsion>  (819) 
0.2625

>  <Gold.PLP.part.buried>  (819) 
-8.9809

>  <Gold.PLP.part.hbond>  (819) 
-2.7165

>  <Gold.PLP.part.metal>  (819) 
0.0000

>  <Gold.PLP.part.nonpolar>  (819) 
-23.5547

>  <Gold.PLP.part.repulsive>  (819) 
0.4960

>  <Gold.Protein.RotatedAtoms>  (819) 


>  <Gold.Protein.RotatedTorsions>  (819) 


>  <Gold.Protein.RotatedWaterAtoms>  (819) 


>  <Gold.Version>  (819) 
5.3.0

>  <PLP.Chemscore.CHOScore>  (819) 


>  <PLP.Chemscore.Hbond>  (819) 


>  <PLP.Chemscore.Internal.Correction>  (819) 


>  <PLP.Chemscore.Metal>  (819) 


>  <PLP.Fitness>  (819) 


>  <PLP.PLP>  (819) 


>  <PLP.ligand.clash>  (819) 


>  <PLP.ligand.torsion>  (819) 


>  <PLP.part.buried>  (819) 


>  <PLP.part.hbond>  (819) 


>  <PLP.part.metal>  (819) 


>  <PLP.part.nonpolar>  (819) 


>  <PLP.part.repulsive>  (819) 


>  <Version>  (819) 


$$$$
3819|Compound_1707|Compounds_3D_F|sdf|513|dock10|1
     RDKit          3D

 18 20  0  0  0  0  0  0  0  0999 V2000
   -8.2492  -16.9823   11.8476 N   0  0  0  0  0  0  0  0  0  0  0  0
   -8.4999  -15.6579   11.8663 C   0  0  0  0  0  0  0  0  0  0  0  0
   -9.6232  -15.2488   11.6431 O   0  0  0  0  0  0  0  0  0  0  0  0
   -7.4180  -14.7109   12.1557 C   0  0  0  0  0  0  0  0  0  0  0  0
   -7.4686  -13.3545   12.0307 C   0  0  0  0  0  0  0  0  0  0  0  0
   -6.2755  -12.8736   12.3944 N   0  0  0  0  0  0  0  0  0  0  0  0
   -5.5017  -13.8682   12.7342 C   0  0  0  0  0  0  0  0  0  0  0  0
   -6.1775  -15.0139   12.6040 O   0  0  0  0  0  0  0  0  0  0  0  0
   -8.6525  -12.5457   11.5676 C   0  0  0  0  0  0  0  0  0  0  0  0
   -9.2713  -17.8781   11.5689 C   0  0  0  0  0  0  0  0  0  0  0  0
  -10.5292  -17.5975   11.8951 N   0  0  0  0  0  0  0  0  0  0  0  0
  -11.5091  -18.4447   11.6329 C   0  0  0  0  0  0  0  0  0  0  0  0
  -11.3072  -19.6004   11.0407 N   0  0  0  0  0  0  0  0  0  0  0  0
  -10.0763  -19.9682   10.6758 C   0  0  0  0  0  0  0  0  0  0  0  0
   -9.0038  -19.0940   10.9322 C   0  0  0  0  0  0  0  0  0  0  0  0
   -7.8908  -19.7329   10.4542 N   0  0  0  0  0  0  0  0  0  0  0  0
   -8.2612  -20.8673    9.9650 N   0  0  0  0  0  0  0  0  0  0  0  0
   -9.5322  -21.0392   10.0722 N   0  0  0  0  0  0  0  0  0  0  0  0
  1  2  1  0
  1 10  1  0
  2  3  2  0
  2  4  1  0
  4  5  2  0
  4  8  1  0
  5  6  1  0
  5  9  1  0
  6  7  2  0
  7  8  1  0
 10 11  2  0
 10 15  1  0
 11 12  1  0
 12 13  2  0
 13 14  1  0
 14 15  2  0
 14 18  1  0
 15 16  1  0
 16 17  1  0
 17 18  2  0
M  END
>  <Gold.Gold.Protein.RotatedWaterAtoms>  (820) 


>  <Gold.Id.Protein>  (820) 


>  <Gold.PLP.Chemscore.CHOScore>  (820) 
1.0000

>  <Gold.PLP.Chemscore.Hbond>  (820) 
1.0000

>  <Gold.PLP.Chemscore.Internal.Correction>  (820) 
0.2950

>  <Gold.PLP.Chemscore.Metal>  (820) 
0.0000

>  <Gold.PLP.Fitness>  (820) 
40.4746

>  <Gold.PLP.PLP>  (820) 
-34.6537

>  <Gold.PLP.ligand.clash>  (820) 
0.0000

>  <Gold.PLP.ligand.torsion>  (820) 
0.2371

>  <Gold.PLP.part.buried>  (820) 
-9.3774

>  <Gold.PLP.part.hbond>  (820) 
-1.2463

>  <Gold.PLP.part.metal>  (820) 
0.0000

>  <Gold.PLP.part.nonpolar>  (820) 
-24.9406

>  <Gold.PLP.part.repulsive>  (820) 
0.5899

>  <Gold.Protein.RotatedAtoms>  (820) 


>  <Gold.Protein.RotatedTorsions>  (820) 


>  <Gold.Protein.RotatedWaterAtoms>  (820) 


>  <Gold.Version>  (820) 
5.3.0

>  <PLP.Chemscore.CHOScore>  (820) 


>  <PLP.Chemscore.Hbond>  (820) 


>  <PLP.Chemscore.Internal.Correction>  (820) 


>  <PLP.Chemscore.Metal>  (820) 


>  <PLP.Fitness>  (820) 


>  <PLP.PLP>  (820) 


>  <PLP.ligand.clash>  (820) 


>  <PLP.ligand.torsion>  (820) 


>  <PLP.part.buried>  (820) 


>  <PLP.part.hbond>  (820) 


>  <PLP.part.metal>  (820) 


>  <PLP.part.nonpolar>  (820) 


>  <PLP.part.repulsive>  (820) 


>  <Version>  (820) 


$$$$
3820|Compound_1710|Compounds_3D_F|sdf|515|dock10|1
     RDKit          3D

 27 29  0  0  0  0  0  0  0  0999 V2000
   -9.4099  -13.6934   10.9314 O   0  0  0  0  0  0  0  0  0  0  0  0
   -8.7858  -14.8615   11.2168 C   0  0  0  0  0  0  0  0  0  0  0  0
   -7.4243  -14.8813   11.5551 C   0  0  0  0  0  0  0  0  0  0  0  0
   -6.4615  -13.9347   11.6875 N   0  0  0  0  0  0  0  0  0  0  0  0
   -5.3413  -14.5005   12.0280 C   0  0  0  0  0  0  0  0  0  0  0  0
   -5.5141  -15.8498   12.1361 N   0  0  0  0  0  0  0  0  0  0  0  0
   -6.8268  -16.1215   11.8423 C   0  0  0  0  0  0  0  0  0  0  0  0
   -7.5646  -17.2241   11.7832 N   0  0  0  0  0  0  0  0  0  0  0  0
   -8.8448  -17.1593   11.4586 C   0  0  0  0  0  0  0  0  0  0  0  0
   -9.4495  -16.0090   11.1864 N   0  0  0  0  0  0  0  0  0  0  0  0
   -9.5841  -18.3332   11.4071 N   0  0  0  0  0  0  0  0  0  0  0  0
  -10.8217  -18.3750   11.9408 C   0  0  0  0  0  0  0  0  0  0  0  0
  -11.2901  -17.3845   12.4682 O   0  0  0  0  0  0  0  0  0  0  0  0
  -11.6021  -19.6150   11.8857 C   0  0  0  0  0  0  0  0  0  0  0  0
  -12.9463  -19.7398   12.0777 C   0  0  0  0  0  0  0  0  0  0  0  0
  -13.2524  -21.0341   11.9413 N   0  0  0  0  0  0  0  0  0  0  0  0
  -12.1631  -21.7033   11.6756 C   0  0  0  0  0  0  0  0  0  0  0  0
  -11.1294  -20.8575   11.6285 O   0  0  0  0  0  0  0  0  0  0  0  0
  -13.9102  -18.6240   12.3884 C   0  0  0  0  0  0  0  0  0  0  0  0
   -4.4862  -16.8288   12.4991 C   0  0  0  0  0  0  0  0  0  0  0  0
   -4.1584  -17.6984   11.2841 C   0  0  0  0  0  0  0  0  0  0  0  0
   -3.5227  -16.8991   10.2839 O   0  0  0  0  0  0  0  0  0  0  0  0
   -3.3583  -17.5625    9.0293 C   0  0  0  0  0  0  0  0  0  0  0  0
   -1.6068  -18.0124    8.8044 P   0  0  0  0  0  0  0  0  0  0  0  0
   -0.8362  -17.6100   10.0014 O   0  0  0  0  0  0  0  0  0  0  0  0
   -1.4842  -19.6049    8.5967 O   0  0  0  0  0  0  0  0  0  0  0  0
   -1.0198  -17.2565    7.5088 O   0  0  0  0  0  0  0  0  0  0  0  0
  1  2  1  0
  2  3  2  0
  2 10  1  0
  3  4  1  0
  3  7  1  0
  4  5  2  0
  5  6  1  0
  6  7  1  0
  6 20  1  0
  7  8  2  0
  8  9  1  0
  9 10  2  0
  9 11  1  0
 11 12  1  0
 12 13  2  0
 12 14  1  0
 14 15  2  0
 14 18  1  0
 15 16  1  0
 15 19  1  0
 16 17  2  0
 17 18  1  0
 20 21  1  0
 21 22  1  0
 22 23  1  0
 23 24  1  0
 24 25  2  0
 24 26  1  0
 24 27  1  0
M  END
>  <Gold.Gold.Protein.RotatedWaterAtoms>  (821) 


>  <Gold.Id.Protein>  (821) 


>  <Gold.PLP.Chemscore.CHOScore>  (821) 
1.2614

>  <Gold.PLP.Chemscore.Hbond>  (821) 
3.1084

>  <Gold.PLP.Chemscore.Internal.Correction>  (821) 
0.6222

>  <Gold.PLP.Chemscore.Metal>  (821) 
0.0000

>  <Gold.PLP.Fitness>  (821) 
55.0292

>  <Gold.PLP.PLP>  (821) 
-43.1360

>  <Gold.PLP.ligand.clash>  (821) 
0.0000

>  <Gold.PLP.ligand.torsion>  (821) 
0.9192

>  <Gold.PLP.part.buried>  (821) 
-5.3112

>  <Gold.PLP.part.hbond>  (821) 
-5.9254

>  <Gold.PLP.part.metal>  (821) 
0.0000

>  <Gold.PLP.part.nonpolar>  (821) 
-32.4072

>  <Gold.PLP.part.repulsive>  (821) 
1.6679

>  <Gold.Protein.RotatedAtoms>  (821) 


>  <Gold.Protein.RotatedTorsions>  (821) 


>  <Gold.Protein.RotatedWaterAtoms>  (821) 


>  <Gold.Version>  (821) 
5.3.0

>  <PLP.Chemscore.CHOScore>  (821) 


>  <PLP.Chemscore.Hbond>  (821) 


>  <PLP.Chemscore.Internal.Correction>  (821) 


>  <PLP.Chemscore.Metal>  (821) 


>  <PLP.Fitness>  (821) 


>  <PLP.PLP>  (821) 


>  <PLP.ligand.clash>  (821) 


>  <PLP.ligand.torsion>  (821) 


>  <PLP.part.buried>  (821) 


>  <PLP.part.hbond>  (821) 


>  <PLP.part.metal>  (821) 


>  <PLP.part.nonpolar>  (821) 


>  <PLP.part.repulsive>  (821) 


>  <Version>  (821) 


$$$$
3821|Compound_1787|Compounds_3D_F|sdf|526|dock10|1
     RDKit          3D

 19 20  0  0  0  0  0  0  0  0999 V2000
   -5.5790  -15.1305    8.7595 O   0  0  0  0  0  0  0  0  0  0  0  0
   -6.7272  -15.4245    9.3990 C   0  0  0  0  0  0  0  0  0  0  0  0
   -7.4096  -16.3563    9.0224 O   0  0  0  0  0  0  0  0  0  0  0  0
   -7.1567  -14.6153   10.5596 C   0  0  0  0  0  0  0  0  0  0  0  0
   -6.3389  -13.7022   11.0911 N   0  0  0  0  0  0  0  0  0  0  0  0
   -6.7152  -12.9775   12.1258 C   0  0  0  0  0  0  0  0  0  0  0  0
   -5.8530  -12.0620   12.6335 O   0  0  0  0  0  0  0  0  0  0  0  0
   -7.9093  -13.1133   12.6836 N   0  0  0  0  0  0  0  0  0  0  0  0
   -8.7816  -13.9944   12.2202 C   0  0  0  0  0  0  0  0  0  0  0  0
  -10.0005  -14.1249   12.7987 O   0  0  0  0  0  0  0  0  0  0  0  0
   -8.4284  -14.7868   11.1150 C   0  0  0  0  0  0  0  0  0  0  0  0
   -9.3171  -15.7260   10.5940 N   0  0  0  0  0  0  0  0  0  0  0  0
   -9.2322  -17.0170   10.9728 C   0  0  0  0  0  0  0  0  0  0  0  0
   -8.3484  -17.3725   11.7285 O   0  0  0  0  0  0  0  0  0  0  0  0
  -10.2122  -17.9972   10.4714 C   0  0  0  0  0  0  0  0  0  0  0  0
  -10.3528  -19.2857   10.8887 C   0  0  0  0  0  0  0  0  0  0  0  0
  -11.3565  -19.8208   10.1756 O   0  0  0  0  0  0  0  0  0  0  0  0
  -11.8218  -18.8833    9.3384 C   0  0  0  0  0  0  0  0  0  0  0  0
  -11.1484  -17.7841    9.5079 N   0  0  0  0  0  0  0  0  0  0  0  0
  1  2  1  0
  2  3  2  0
  2  4  1  0
  4  5  2  0
  4 11  1  0
  5  6  1  0
  6  7  1  0
  6  8  2  0
  8  9  1  0
  9 10  1  0
  9 11  2  0
 11 12  1  0
 12 13  1  0
 13 14  2  0
 13 15  1  0
 15 16  2  0
 15 19  1  0
 16 17  1  0
 17 18  1  0
 18 19  2  0
M  END
>  <Gold.Gold.Protein.RotatedWaterAtoms>  (822) 


>  <Gold.Id.Protein>  (822) 


>  <Gold.PLP.Chemscore.CHOScore>  (822) 
0.0000

>  <Gold.PLP.Chemscore.Hbond>  (822) 
3.0360

>  <Gold.PLP.Chemscore.Internal.Correction>  (822) 
1.1551

>  <Gold.PLP.Chemscore.Metal>  (822) 
0.0000

>  <Gold.PLP.Fitness>  (822) 
45.6285

>  <Gold.PLP.PLP>  (822) 
-36.9832

>  <Gold.PLP.ligand.clash>  (822) 
0.0016

>  <Gold.PLP.ligand.torsion>  (822) 
0.8081

>  <Gold.PLP.part.buried>  (822) 
-7.9843

>  <Gold.PLP.part.hbond>  (822) 
-8.0549

>  <Gold.PLP.part.metal>  (822) 
0.0000

>  <Gold.PLP.part.nonpolar>  (822) 
-21.3047

>  <Gold.PLP.part.repulsive>  (822) 
0.3853

>  <Gold.Protein.RotatedAtoms>  (822) 


>  <Gold.Protein.RotatedTorsions>  (822) 


>  <Gold.Protein.RotatedWaterAtoms>  (822) 


>  <Gold.Version>  (822) 
5.3.0

>  <PLP.Chemscore.CHOScore>  (822) 


>  <PLP.Chemscore.Hbond>  (822) 


>  <PLP.Chemscore.Internal.Correction>  (822) 


>  <PLP.Chemscore.Metal>  (822) 


>  <PLP.Fitness>  (822) 


>  <PLP.PLP>  (822) 


>  <PLP.ligand.clash>  (822) 


>  <PLP.ligand.torsion>  (822) 


>  <PLP.part.buried>  (822) 


>  <PLP.part.hbond>  (822) 


>  <PLP.part.metal>  (822) 


>  <PLP.part.nonpolar>  (822) 


>  <PLP.part.repulsive>  (822) 


>  <Version>  (822) 


$$$$
3822|Compound_1810|Compounds_3D_F|sdf|534|dock10|1
     RDKit          3D

 16 17  0  0  0  0  0  0  0  0999 V2000
  -12.5009  -17.8151   12.4996 O   0  0  0  0  0  0  0  0  0  0  0  0
  -11.7250  -18.5279   11.6599 C   0  0  0  0  0  0  0  0  0  0  0  0
  -12.1872  -19.4849   11.0705 O   0  0  0  0  0  0  0  0  0  0  0  0
  -10.3135  -18.1468   11.4566 C   0  0  0  0  0  0  0  0  0  0  0  0
   -9.7634  -16.9986   11.7978 N   0  0  0  0  0  0  0  0  0  0  0  0
   -8.4763  -16.9997   11.4653 C   0  0  0  0  0  0  0  0  0  0  0  0
   -8.1775  -18.1514   10.9027 N   0  0  0  0  0  0  0  0  0  0  0  0
   -9.3549  -18.9167   10.8902 N   0  0  0  0  0  0  0  0  0  0  0  0
   -7.5827  -15.9452   11.6787 N   0  0  0  0  0  0  0  0  0  0  0  0
   -8.0494  -14.6986   11.8886 C   0  0  0  0  0  0  0  0  0  0  0  0
   -9.2484  -14.4907   11.8922 O   0  0  0  0  0  0  0  0  0  0  0  0
   -7.1080  -13.5871   12.1133 C   0  0  0  0  0  0  0  0  0  0  0  0
   -7.3696  -12.2613   11.9548 C   0  0  0  0  0  0  0  0  0  0  0  0
   -6.2433  -11.5997   12.2640 O   0  0  0  0  0  0  0  0  0  0  0  0
   -5.3090  -12.4996   12.6048 C   0  0  0  0  0  0  0  0  0  0  0  0
   -5.8160  -13.6937   12.5244 N   0  0  0  0  0  0  0  0  0  0  0  0
  1  2  1  0
  2  3  2  0
  2  4  1  0
  4  5  2  0
  4  8  1  0
  5  6  1  0
  6  7  2  0
  6  9  1  0
  7  8  1  0
  9 10  1  0
 10 11  2  0
 10 12  1  0
 12 13  2  0
 12 16  1  0
 13 14  1  0
 14 15  1  0
 15 16  2  0
M  END
>  <Gold.Gold.Protein.RotatedWaterAtoms>  (823) 


>  <Gold.Id.Protein>  (823) 


>  <Gold.PLP.Chemscore.CHOScore>  (823) 
1.1780

>  <Gold.PLP.Chemscore.Hbond>  (823) 
1.6669

>  <Gold.PLP.Chemscore.Internal.Correction>  (823) 
0.0001

>  <Gold.PLP.Chemscore.Metal>  (823) 
0.0000

>  <Gold.PLP.Fitness>  (823) 
40.3701

>  <Gold.PLP.PLP>  (823) 
-32.5828

>  <Gold.PLP.ligand.clash>  (823) 
0.0000

>  <Gold.PLP.ligand.torsion>  (823) 
0.3738

>  <Gold.PLP.part.buried>  (823) 
-8.9089

>  <Gold.PLP.part.hbond>  (823) 
-3.7614

>  <Gold.PLP.part.metal>  (823) 
0.0000

>  <Gold.PLP.part.nonpolar>  (823) 
-21.7997

>  <Gold.PLP.part.repulsive>  (823) 
0.7439

>  <Gold.Protein.RotatedAtoms>  (823) 


>  <Gold.Protein.RotatedTorsions>  (823) 


>  <Gold.Protein.RotatedWaterAtoms>  (823) 


>  <Gold.Version>  (823) 
5.3.0

>  <PLP.Chemscore.CHOScore>  (823) 


>  <PLP.Chemscore.Hbond>  (823) 


>  <PLP.Chemscore.Internal.Correction>  (823) 


>  <PLP.Chemscore.Metal>  (823) 


>  <PLP.Fitness>  (823) 


>  <PLP.PLP>  (823) 


>  <PLP.ligand.clash>  (823) 


>  <PLP.ligand.torsion>  (823) 


>  <PLP.part.buried>  (823) 


>  <PLP.part.hbond>  (823) 


>  <PLP.part.metal>  (823) 


>  <PLP.part.nonpolar>  (823) 


>  <PLP.part.repulsive>  (823) 


>  <Version>  (823) 


$$$$
3823|Compound_1816|Compounds_3D_F|sdf|536|dock10|1
     RDKit          3D

 29 33  0  0  0  0  0  0  0  0999 V2000
  -14.4394  -20.3044    7.7373 O   0  0  0  0  0  0  0  0  0  0  0  0
  -14.3999  -19.6837    9.0235 C   0  0  0  0  0  0  0  0  0  0  0  0
  -13.2251  -20.2456    9.8257 C   0  0  0  0  0  0  0  0  0  0  0  0
  -12.0052  -19.5432    9.5014 O   0  0  0  0  0  0  0  0  0  0  0  0
  -11.1011  -19.7421   10.6009 C   0  0  0  0  0  0  0  0  0  0  0  0
  -10.2725  -18.5489   10.7863 N   0  0  0  0  0  0  0  0  0  0  0  0
  -10.2212  -17.7689   11.9026 C   0  0  0  0  0  0  0  0  0  0  0  0
   -9.3792  -16.7925   11.7237 N   0  0  0  0  0  0  0  0  0  0  0  0
   -8.8380  -16.8837   10.4862 C   0  0  0  0  0  0  0  0  0  0  0  0
   -9.4010  -18.0151    9.8711 C   0  0  0  0  0  0  0  0  0  0  0  0
   -9.0306  -18.3294    8.6342 N   0  0  0  0  0  0  0  0  0  0  0  0
   -8.1496  -17.5928    7.9902 C   0  0  0  0  0  0  0  0  0  0  0  0
   -7.5950  -16.5207    8.5265 N   0  0  0  0  0  0  0  0  0  0  0  0
   -7.8997  -16.1322    9.7597 C   0  0  0  0  0  0  0  0  0  0  0  0
   -7.3111  -15.0047   10.3143 N   0  0  0  0  0  0  0  0  0  0  0  0
   -8.0768  -14.0622   10.8997 C   0  0  0  0  0  0  0  0  0  0  0  0
   -9.2846  -14.2007   10.9412 O   0  0  0  0  0  0  0  0  0  0  0  0
   -7.4517  -12.8652   11.4885 C   0  0  0  0  0  0  0  0  0  0  0  0
   -8.0345  -11.6459   11.6515 C   0  0  0  0  0  0  0  0  0  0  0  0
   -7.1192  -10.8476   12.2233 O   0  0  0  0  0  0  0  0  0  0  0  0
   -5.9988  -11.5606   12.4091 C   0  0  0  0  0  0  0  0  0  0  0  0
   -6.1858  -12.7718   11.9770 N   0  0  0  0  0  0  0  0  0  0  0  0
  -11.9555  -19.9927   11.8609 C   0  0  0  0  0  0  0  0  0  0  0  0
  -11.6841  -21.3384   12.3212 O   0  0  0  0  0  0  0  0  0  0  0  0
  -13.1236  -21.7836   12.9468 P   0  0  0  0  0  0  0  0  0  0  0  0
  -13.2856  -21.2582   14.3911 O   0  0  0  0  0  0  0  0  0  0  0  0
  -13.2997  -23.3179   12.8945 O   0  0  0  0  0  0  0  0  0  0  0  0
  -14.1593  -21.0414   11.9359 O   0  0  0  0  0  0  0  0  0  0  0  0
  -13.4144  -19.9699   11.3364 C   0  0  0  0  0  0  0  0  0  0  0  0
  1  2  1  0
  2  3  1  0
  3  4  1  0
  3 29  1  0
  4  5  1  0
  5  6  1  0
  5 23  1  0
  6  7  1  0
  6 10  1  0
  7  8  2  0
  8  9  1  0
  9 10  2  0
  9 14  1  0
 10 11  1  0
 11 12  2  0
 12 13  1  0
 13 14  2  0
 14 15  1  0
 15 16  1  0
 16 17  2  0
 16 18  1  0
 18 19  2  0
 18 22  1  0
 19 20  1  0
 20 21  1  0
 21 22  2  0
 23 24  1  0
 23 29  1  0
 24 25  1  0
 25 26  2  0
 25 27  1  0
 25 28  1  0
 28 29  1  0
M  CHG  1  27  -1
M  END
>  <Gold.Gold.Protein.RotatedWaterAtoms>  (824) 


>  <Gold.Id.Protein>  (824) 


>  <Gold.PLP.Chemscore.CHOScore>  (824) 
0.9292

>  <Gold.PLP.Chemscore.Hbond>  (824) 
3.4917

>  <Gold.PLP.Chemscore.Internal.Correction>  (824) 
0.3140

>  <Gold.PLP.Chemscore.Metal>  (824) 
0.0000

>  <Gold.PLP.Fitness>  (824) 
58.9256

>  <Gold.PLP.PLP>  (824) 
-47.2556

>  <Gold.PLP.ligand.clash>  (824) 
0.0000

>  <Gold.PLP.ligand.torsion>  (824) 
0.9532

>  <Gold.PLP.part.buried>  (824) 
-11.1107

>  <Gold.PLP.part.hbond>  (824) 
-5.9909

>  <Gold.PLP.part.metal>  (824) 
0.0000

>  <Gold.PLP.part.nonpolar>  (824) 
-32.4617

>  <Gold.PLP.part.repulsive>  (824) 
1.9659

>  <Gold.Protein.RotatedAtoms>  (824) 


>  <Gold.Protein.RotatedTorsions>  (824) 


>  <Gold.Protein.RotatedWaterAtoms>  (824) 


>  <Gold.Version>  (824) 
5.3.0

>  <PLP.Chemscore.CHOScore>  (824) 


>  <PLP.Chemscore.Hbond>  (824) 


>  <PLP.Chemscore.Internal.Correction>  (824) 


>  <PLP.Chemscore.Metal>  (824) 


>  <PLP.Fitness>  (824) 


>  <PLP.PLP>  (824) 


>  <PLP.ligand.clash>  (824) 


>  <PLP.ligand.torsion>  (824) 


>  <PLP.part.buried>  (824) 


>  <PLP.part.hbond>  (824) 


>  <PLP.part.metal>  (824) 


>  <PLP.part.nonpolar>  (824) 


>  <PLP.part.repulsive>  (824) 


>  <Version>  (824) 


$$$$
3824|Compound_1882|Compounds_3D_F|sdf|548|dock10|1
     RDKit          3D

 17 18  0  0  0  0  0  0  0  0999 V2000
  -14.8407  -21.9205   13.1932 O   0  0  0  0  0  0  0  0  0  0  0  0
  -13.6593  -21.7867   12.5594 C   0  0  0  0  0  0  0  0  0  0  0  0
  -13.1115  -22.7615   12.0832 O   0  0  0  0  0  0  0  0  0  0  0  0
  -13.0301  -20.4564   12.4444 C   0  0  0  0  0  0  0  0  0  0  0  0
  -11.7954  -20.2138   12.0519 N   0  0  0  0  0  0  0  0  0  0  0  0
  -11.5668  -18.9043   12.0689 C   0  0  0  0  0  0  0  0  0  0  0  0
  -12.6538  -18.2823   12.4736 N   0  0  0  0  0  0  0  0  0  0  0  0
  -13.6213  -19.2700   12.7191 N   0  0  0  0  0  0  0  0  0  0  0  0
  -10.3640  -18.2874   11.7133 N   0  0  0  0  0  0  0  0  0  0  0  0
  -10.1131  -17.0224   12.1088 C   0  0  0  0  0  0  0  0  0  0  0  0
  -10.9324  -16.4198   12.7734 O   0  0  0  0  0  0  0  0  0  0  0  0
   -8.8389  -16.3689   11.7319 C   0  0  0  0  0  0  0  0  0  0  0  0
   -8.7974  -15.0586   11.5189 N   0  0  0  0  0  0  0  0  0  0  0  0
   -7.7116  -14.4568   11.1906 N   0  0  0  0  0  0  0  0  0  0  0  0
   -6.5654  -15.0981   11.0414 C   0  0  0  0  0  0  0  0  0  0  0  0
   -6.5048  -16.4675   11.2423 C   0  0  0  0  0  0  0  0  0  0  0  0
   -7.6718  -17.1273   11.6024 C   0  0  0  0  0  0  0  0  0  0  0  0
  1  2  1  0
  2  3  2  0
  2  4  1  0
  4  5  2  0
  4  8  1  0
  5  6  1  0
  6  7  2  0
  6  9  1  0
  7  8  1  0
  9 10  1  0
 10 11  2  0
 10 12  1  0
 12 13  2  0
 12 17  1  0
 13 14  1  0
 14 15  2  0
 15 16  1  0
 16 17  2  0
M  END
>  <Gold.Gold.Protein.RotatedWaterAtoms>  (825) 


>  <Gold.Id.Protein>  (825) 


>  <Gold.PLP.Chemscore.CHOScore>  (825) 
0.4311

>  <Gold.PLP.Chemscore.Hbond>  (825) 
5.1632

>  <Gold.PLP.Chemscore.Internal.Correction>  (825) 
0.0010

>  <Gold.PLP.Chemscore.Metal>  (825) 
0.0000

>  <Gold.PLP.Fitness>  (825) 
42.0147

>  <Gold.PLP.PLP>  (825) 
-26.3685

>  <Gold.PLP.ligand.clash>  (825) 
0.0000

>  <Gold.PLP.ligand.torsion>  (825) 
0.5689

>  <Gold.PLP.part.buried>  (825) 
-3.3365

>  <Gold.PLP.part.hbond>  (825) 
-7.3396

>  <Gold.PLP.part.metal>  (825) 
0.0000

>  <Gold.PLP.part.nonpolar>  (825) 
-16.8791

>  <Gold.PLP.part.repulsive>  (825) 
0.5828

>  <Gold.Protein.RotatedAtoms>  (825) 


>  <Gold.Protein.RotatedTorsions>  (825) 


>  <Gold.Protein.RotatedWaterAtoms>  (825) 


>  <Gold.Version>  (825) 
5.3.0

>  <PLP.Chemscore.CHOScore>  (825) 


>  <PLP.Chemscore.Hbond>  (825) 


>  <PLP.Chemscore.Internal.Correction>  (825) 


>  <PLP.Chemscore.Metal>  (825) 


>  <PLP.Fitness>  (825) 


>  <PLP.PLP>  (825) 


>  <PLP.ligand.clash>  (825) 


>  <PLP.ligand.torsion>  (825) 


>  <PLP.part.buried>  (825) 


>  <PLP.part.hbond>  (825) 


>  <PLP.part.metal>  (825) 


>  <PLP.part.nonpolar>  (825) 


>  <PLP.part.repulsive>  (825) 


>  <Version>  (825) 


$$$$
3825|Compound_1916|Compounds_3D_F|sdf|557|dock10|1
     RDKit          3D

 19 20  0  0  0  0  0  0  0  0999 V2000
  -13.1031  -18.0884   12.4390 O   0  0  0  0  0  0  0  0  0  0  0  0
  -11.9165  -18.4596   11.9007 C   0  0  0  0  0  0  0  0  0  0  0  0
  -11.8583  -19.5602   11.1682 N   0  0  0  0  0  0  0  0  0  0  0  0
  -10.7169  -19.9571   10.6249 C   0  0  0  0  0  0  0  0  0  0  0  0
   -9.5748  -19.2061   10.8305 C   0  0  0  0  0  0  0  0  0  0  0  0
   -7.7444  -19.7886    9.9931 I   0  0  0  0  0  0  0  0  0  0  0  0
   -9.6689  -18.0506   11.6076 C   0  0  0  0  0  0  0  0  0  0  0  0
  -10.8478  -17.7111   12.1172 N   0  0  0  0  0  0  0  0  0  0  0  0
   -8.5473  -17.2643   11.8409 N   0  0  0  0  0  0  0  0  0  0  0  0
   -8.6543  -15.9206   11.8434 C   0  0  0  0  0  0  0  0  0  0  0  0
   -9.7332  -15.3969   11.6416 O   0  0  0  0  0  0  0  0  0  0  0  0
   -7.4650  -15.0869   12.0915 C   0  0  0  0  0  0  0  0  0  0  0  0
   -7.3776  -13.7179   12.1611 C   0  0  0  0  0  0  0  0  0  0  0  0
   -6.0966  -13.4351   12.4036 O   0  0  0  0  0  0  0  0  0  0  0  0
   -5.4014  -14.4184   12.4907 N   0  0  0  0  0  0  0  0  0  0  0  0
   -6.0785  -15.5155   12.3313 C   0  0  0  0  0  0  0  0  0  0  0  0
   -5.5523  -16.9283   12.3731 C   0  0  0  0  0  0  0  0  0  0  0  0
   -4.0232  -16.9015   12.4078 C   0  0  0  0  0  0  0  0  0  0  0  0
   -8.5051  -12.7308   11.9958 C   0  0  0  0  0  0  0  0  0  0  0  0
  1  2  1  0
  2  3  2  0
  2  8  1  0
  3  4  1  0
  4  5  2  0
  5  6  1  0
  5  7  1  0
  7  8  2  0
  7  9  1  0
  9 10  1  0
 10 11  2  0
 10 12  1  0
 12 13  2  0
 12 16  1  0
 13 14  1  0
 13 19  1  0
 14 15  1  0
 15 16  2  0
 16 17  1  0
 17 18  1  0
M  END
>  <Gold.Gold.Protein.RotatedWaterAtoms>  (826) 


>  <Gold.Id.Protein>  (826) 


>  <Gold.PLP.Chemscore.CHOScore>  (826) 
0.0000

>  <Gold.PLP.Chemscore.Hbond>  (826) 
1.2096

>  <Gold.PLP.Chemscore.Internal.Correction>  (826) 
0.3301

>  <Gold.PLP.Chemscore.Metal>  (826) 
0.0000

>  <Gold.PLP.Fitness>  (826) 
44.7799

>  <Gold.PLP.PLP>  (826) 
-41.5902

>  <Gold.PLP.ligand.clash>  (826) 
0.0000

>  <Gold.PLP.ligand.torsion>  (826) 
0.3847

>  <Gold.PLP.part.buried>  (826) 
-9.6732

>  <Gold.PLP.part.hbond>  (826) 
-1.6821

>  <Gold.PLP.part.metal>  (826) 
0.0000

>  <Gold.PLP.part.nonpolar>  (826) 
-31.3845

>  <Gold.PLP.part.repulsive>  (826) 
0.6535

>  <Gold.Protein.RotatedAtoms>  (826) 


>  <Gold.Protein.RotatedTorsions>  (826) 


>  <Gold.Protein.RotatedWaterAtoms>  (826) 


>  <Gold.Version>  (826) 
5.3.0

>  <PLP.Chemscore.CHOScore>  (826) 


>  <PLP.Chemscore.Hbond>  (826) 


>  <PLP.Chemscore.Internal.Correction>  (826) 


>  <PLP.Chemscore.Metal>  (826) 


>  <PLP.Fitness>  (826) 


>  <PLP.PLP>  (826) 


>  <PLP.ligand.clash>  (826) 


>  <PLP.ligand.torsion>  (826) 


>  <PLP.part.buried>  (826) 


>  <PLP.part.hbond>  (826) 


>  <PLP.part.metal>  (826) 


>  <PLP.part.nonpolar>  (826) 


>  <PLP.part.repulsive>  (826) 


>  <Version>  (826) 


$$$$
3826|Compound_1919|Compounds_3D_F|sdf|559|dock10|1
     RDKit          3D

 28 30  0  0  0  0  0  0  0  0999 V2000
  -10.6203  -15.4332   13.0726 O   0  0  0  0  0  0  0  0  0  0  0  0
  -10.1753  -16.4304   12.2744 C   0  0  0  0  0  0  0  0  0  0  0  0
   -8.8983  -16.3544   11.6613 C   0  0  0  0  0  0  0  0  0  0  0  0
   -8.0917  -15.3111   11.8435 N   0  0  0  0  0  0  0  0  0  0  0  0
   -6.9170  -15.2875   11.2535 C   0  0  0  0  0  0  0  0  0  0  0  0
   -6.5086  -16.3435   10.4393 C   0  0  0  0  0  0  0  0  0  0  0  0
   -7.2890  -17.3852   10.2459 N   0  0  0  0  0  0  0  0  0  0  0  0
   -8.4866  -17.4298   10.8352 C   0  0  0  0  0  0  0  0  0  0  0  0
   -9.3158  -18.4677   10.6688 N   0  0  0  0  0  0  0  0  0  0  0  0
  -10.4928  -18.4858   11.2634 C   0  0  0  0  0  0  0  0  0  0  0  0
  -10.9174  -17.5009   12.0506 N   0  0  0  0  0  0  0  0  0  0  0  0
  -11.3212  -19.5798   11.0638 N   0  0  0  0  0  0  0  0  0  0  0  0
  -12.1538  -19.9831   12.0441 C   0  0  0  0  0  0  0  0  0  0  0  0
  -12.1788  -19.3859   13.1037 O   0  0  0  0  0  0  0  0  0  0  0  0
  -13.0333  -21.1455   11.8326 C   0  0  0  0  0  0  0  0  0  0  0  0
  -13.6837  -21.9102   12.7711 C   0  0  0  0  0  0  0  0  0  0  0  0
  -14.3580  -22.8424   12.0938 O   0  0  0  0  0  0  0  0  0  0  0  0
  -14.2145  -22.7580   10.8994 N   0  0  0  0  0  0  0  0  0  0  0  0
  -13.4387  -21.7697   10.5635 C   0  0  0  0  0  0  0  0  0  0  0  0
  -13.0339  -21.3575    9.1715 C   0  0  0  0  0  0  0  0  0  0  0  0
  -14.2686  -20.8957    8.3970 C   0  0  0  0  0  0  0  0  0  0  0  0
  -13.6430  -21.7317   14.2669 C   0  0  0  0  0  0  0  0  0  0  0  0
   -6.0034  -14.1070   11.4581 C   0  0  0  0  0  0  0  0  0  0  0  0
   -4.7747  -14.5494   12.0374 O   0  0  0  0  0  0  0  0  0  0  0  0
   -6.6737  -13.0982   12.3937 C   0  0  0  0  0  0  0  0  0  0  0  0
   -7.9576  -12.7461   11.8738 O   0  0  0  0  0  0  0  0  0  0  0  0
   -5.8042  -11.8445   12.4999 C   0  0  0  0  0  0  0  0  0  0  0  0
   -4.5516  -12.1826   13.0989 O   0  0  0  0  0  0  0  0  0  0  0  0
  1  2  1  0
  2  3  2  0
  2 11  1  0
  3  4  1  0
  3  8  1  0
  4  5  2  0
  5  6  1  0
  5 23  1  0
  6  7  2  0
  7  8  1  0
  8  9  2  0
  9 10  1  0
 10 11  2  0
 10 12  1  0
 12 13  1  0
 13 14  2  0
 13 15  1  0
 15 16  2  0
 15 19  1  0
 16 17  1  0
 16 22  1  0
 17 18  1  0
 18 19  2  0
 19 20  1  0
 20 21  1  0
 23 24  1  0
 23 25  1  0
 25 26  1  0
 25 27  1  0
 27 28  1  0
M  END
>  <Gold.Gold.Protein.RotatedWaterAtoms>  (827) 


>  <Gold.Id.Protein>  (827) 


>  <Gold.PLP.Chemscore.CHOScore>  (827) 
0.0000

>  <Gold.PLP.Chemscore.Hbond>  (827) 
3.8528

>  <Gold.PLP.Chemscore.Internal.Correction>  (827) 
0.5997

>  <Gold.PLP.Chemscore.Metal>  (827) 
0.0000

>  <Gold.PLP.Fitness>  (827) 
63.1387

>  <Gold.PLP.PLP>  (827) 
-51.8023

>  <Gold.PLP.ligand.clash>  (827) 
0.0000

>  <Gold.PLP.ligand.torsion>  (827) 
0.4108

>  <Gold.PLP.part.buried>  (827) 
-5.9071

>  <Gold.PLP.part.hbond>  (827) 
-11.3993

>  <Gold.PLP.part.metal>  (827) 
0.0000

>  <Gold.PLP.part.nonpolar>  (827) 
-34.0145

>  <Gold.PLP.part.repulsive>  (827) 
0.2783

>  <Gold.Protein.RotatedAtoms>  (827) 


>  <Gold.Protein.RotatedTorsions>  (827) 


>  <Gold.Protein.RotatedWaterAtoms>  (827) 


>  <Gold.Version>  (827) 
5.3.0

>  <PLP.Chemscore.CHOScore>  (827) 


>  <PLP.Chemscore.Hbond>  (827) 


>  <PLP.Chemscore.Internal.Correction>  (827) 


>  <PLP.Chemscore.Metal>  (827) 


>  <PLP.Fitness>  (827) 


>  <PLP.PLP>  (827) 


>  <PLP.ligand.clash>  (827) 


>  <PLP.ligand.torsion>  (827) 


>  <PLP.part.buried>  (827) 


>  <PLP.part.hbond>  (827) 


>  <PLP.part.metal>  (827) 


>  <PLP.part.nonpolar>  (827) 


>  <PLP.part.repulsive>  (827) 


>  <Version>  (827) 


$$$$
3827|Compound_1920|Compounds_3D_F|sdf|560|dock10|1
     RDKit          3D

 20 21  0  0  0  0  0  0  0  0999 V2000
   -8.7973  -16.7248   11.9000 N   0  0  0  0  0  0  0  0  0  0  0  0
   -8.7248  -15.3793   11.9370 C   0  0  0  0  0  0  0  0  0  0  0  0
   -9.7358  -14.7128   11.8246 O   0  0  0  0  0  0  0  0  0  0  0  0
   -7.4201  -14.7168   12.1138 C   0  0  0  0  0  0  0  0  0  0  0  0
   -7.1335  -13.3734   12.1017 C   0  0  0  0  0  0  0  0  0  0  0  0
   -5.8174  -13.2689   12.3038 O   0  0  0  0  0  0  0  0  0  0  0  0
   -5.2718  -14.3364   12.4352 N   0  0  0  0  0  0  0  0  0  0  0  0
   -6.1051  -15.3308   12.3527 C   0  0  0  0  0  0  0  0  0  0  0  0
   -5.7892  -16.8004   12.4663 C   0  0  0  0  0  0  0  0  0  0  0  0
   -4.2717  -16.9945   12.5028 C   0  0  0  0  0  0  0  0  0  0  0  0
   -8.1087  -12.2430   11.8999 C   0  0  0  0  0  0  0  0  0  0  0  0
  -10.0302  -17.3524   11.7277 C   0  0  0  0  0  0  0  0  0  0  0  0
  -11.1108  -17.1692   12.4395 N   0  0  0  0  0  0  0  0  0  0  0  0
  -12.0231  -17.8597   12.0462 O   0  0  0  0  0  0  0  0  0  0  0  0
  -11.6603  -18.6101   10.9958 C   0  0  0  0  0  0  0  0  0  0  0  0
  -10.3656  -18.3165   10.7393 C   0  0  0  0  0  0  0  0  0  0  0  0
  -12.5281  -19.5874   10.2448 C   0  0  0  0  0  0  0  0  0  0  0  0
  -13.1093  -20.6094   11.2236 C   0  0  0  0  0  0  0  0  0  0  0  0
  -13.6681  -18.8329    9.5579 C   0  0  0  0  0  0  0  0  0  0  0  0
  -11.6873  -20.3106    9.1916 C   0  0  0  0  0  0  0  0  0  0  0  0
  1  2  1  0
  1 12  1  0
  2  3  2  0
  2  4  1  0
  4  5  2  0
  4  8  1  0
  5  6  1  0
  5 11  1  0
  6  7  1  0
  7  8  2  0
  8  9  1  0
  9 10  1  0
 12 13  2  0
 12 16  1  0
 13 14  1  0
 14 15  1  0
 15 16  2  0
 15 17  1  0
 17 18  1  0
 17 19  1  0
 17 20  1  0
M  END
>  <Gold.Gold.Protein.RotatedWaterAtoms>  (828) 


>  <Gold.Id.Protein>  (828) 


>  <Gold.PLP.Chemscore.CHOScore>  (828) 
0.0000

>  <Gold.PLP.Chemscore.Hbond>  (828) 
1.0280

>  <Gold.PLP.Chemscore.Internal.Correction>  (828) 
0.0111

>  <Gold.PLP.Chemscore.Metal>  (828) 
0.0000

>  <Gold.PLP.Fitness>  (828) 
49.1852

>  <Gold.PLP.PLP>  (828) 
-47.3433

>  <Gold.PLP.ligand.clash>  (828) 
0.0000

>  <Gold.PLP.ligand.torsion>  (828) 
0.6266

>  <Gold.PLP.part.buried>  (828) 
-7.0705

>  <Gold.PLP.part.hbond>  (828) 
-3.6007

>  <Gold.PLP.part.metal>  (828) 
0.0000

>  <Gold.PLP.part.nonpolar>  (828) 
-36.4285

>  <Gold.PLP.part.repulsive>  (828) 
0.7685

>  <Gold.Protein.RotatedAtoms>  (828) 


>  <Gold.Protein.RotatedTorsions>  (828) 


>  <Gold.Protein.RotatedWaterAtoms>  (828) 


>  <Gold.Version>  (828) 
5.3.0

>  <PLP.Chemscore.CHOScore>  (828) 


>  <PLP.Chemscore.Hbond>  (828) 


>  <PLP.Chemscore.Internal.Correction>  (828) 


>  <PLP.Chemscore.Metal>  (828) 


>  <PLP.Fitness>  (828) 


>  <PLP.PLP>  (828) 


>  <PLP.ligand.clash>  (828) 


>  <PLP.ligand.torsion>  (828) 


>  <PLP.part.buried>  (828) 


>  <PLP.part.hbond>  (828) 


>  <PLP.part.metal>  (828) 


>  <PLP.part.nonpolar>  (828) 


>  <PLP.part.repulsive>  (828) 


>  <Version>  (828) 


$$$$
3828|Compound_1925|Compounds_3D_F|sdf|562|dock10|1
     RDKit          3D

 21 23  0  0  0  0  0  0  0  0999 V2000
  -13.6207  -18.7982   12.6234 O   0  0  0  0  0  0  0  0  0  0  0  0
  -12.4710  -18.6417   11.9266 C   0  0  0  0  0  0  0  0  0  0  0  0
  -12.1465  -19.5158   10.8706 C   0  0  0  0  0  0  0  0  0  0  0  0
  -12.7524  -20.5821   10.3194 N   0  0  0  0  0  0  0  0  0  0  0  0
  -12.0356  -21.0492    9.3571 N   0  0  0  0  0  0  0  0  0  0  0  0
  -10.8724  -20.2760    9.2245 N   0  0  0  0  0  0  0  0  0  0  0  0
  -10.9385  -19.3028   10.1825 C   0  0  0  0  0  0  0  0  0  0  0  0
  -10.1525  -18.2951   10.5471 N   0  0  0  0  0  0  0  0  0  0  0  0
  -10.4988  -17.4995   11.5449 C   0  0  0  0  0  0  0  0  0  0  0  0
  -11.6301  -17.6598   12.2185 N   0  0  0  0  0  0  0  0  0  0  0  0
   -9.6508  -16.4575   11.8966 N   0  0  0  0  0  0  0  0  0  0  0  0
   -8.3186  -16.5943   11.7479 C   0  0  0  0  0  0  0  0  0  0  0  0
   -7.8593  -17.6298   11.3046 O   0  0  0  0  0  0  0  0  0  0  0  0
   -7.4181  -15.4887   12.1206 C   0  0  0  0  0  0  0  0  0  0  0  0
   -7.6988  -14.1466   12.2048 C   0  0  0  0  0  0  0  0  0  0  0  0
   -6.5658  -13.5487   12.5810 O   0  0  0  0  0  0  0  0  0  0  0  0
   -5.6510  -14.3209   12.7337 N   0  0  0  0  0  0  0  0  0  0  0  0
   -5.9982  -15.5517   12.5000 C   0  0  0  0  0  0  0  0  0  0  0  0
   -5.1291  -16.7791   12.5888 C   0  0  0  0  0  0  0  0  0  0  0  0
   -3.8641  -16.5696   11.7538 C   0  0  0  0  0  0  0  0  0  0  0  0
   -9.0228  -13.4816   11.9288 C   0  0  0  0  0  0  0  0  0  0  0  0
  1  2  1  0
  2  3  2  0
  2 10  1  0
  3  4  1  0
  3  7  1  0
  4  5  2  0
  5  6  1  0
  6  7  1  0
  7  8  2  0
  8  9  1  0
  9 10  2  0
  9 11  1  0
 11 12  1  0
 12 13  2  0
 12 14  1  0
 14 15  2  0
 14 18  1  0
 15 16  1  0
 15 21  1  0
 16 17  1  0
 17 18  2  0
 18 19  1  0
 19 20  1  0
M  END
>  <Gold.Gold.Protein.RotatedWaterAtoms>  (829) 


>  <Gold.Id.Protein>  (829) 


>  <Gold.PLP.Chemscore.CHOScore>  (829) 
0.0000

>  <Gold.PLP.Chemscore.Hbond>  (829) 
1.0000

>  <Gold.PLP.Chemscore.Internal.Correction>  (829) 
0.4151

>  <Gold.PLP.Chemscore.Metal>  (829) 
0.0000

>  <Gold.PLP.Fitness>  (829) 
42.5649

>  <Gold.PLP.PLP>  (829) 
-40.1575

>  <Gold.PLP.ligand.clash>  (829) 
0.0000

>  <Gold.PLP.ligand.torsion>  (829) 
0.5039

>  <Gold.PLP.part.buried>  (829) 
-6.7430

>  <Gold.PLP.part.hbond>  (829) 
-4.0000

>  <Gold.PLP.part.metal>  (829) 
0.0000

>  <Gold.PLP.part.nonpolar>  (829) 
-29.7192

>  <Gold.PLP.part.repulsive>  (829) 
0.6729

>  <Gold.Protein.RotatedAtoms>  (829) 


>  <Gold.Protein.RotatedTorsions>  (829) 


>  <Gold.Protein.RotatedWaterAtoms>  (829) 


>  <Gold.Version>  (829) 
5.3.0

>  <PLP.Chemscore.CHOScore>  (829) 


>  <PLP.Chemscore.Hbond>  (829) 


>  <PLP.Chemscore.Internal.Correction>  (829) 


>  <PLP.Chemscore.Metal>  (829) 


>  <PLP.Fitness>  (829) 


>  <PLP.PLP>  (829) 


>  <PLP.ligand.clash>  (829) 


>  <PLP.ligand.torsion>  (829) 


>  <PLP.part.buried>  (829) 


>  <PLP.part.hbond>  (829) 


>  <PLP.part.metal>  (829) 


>  <PLP.part.nonpolar>  (829) 


>  <PLP.part.repulsive>  (829) 


>  <Version>  (829) 


$$$$
3829|Compound_1942|Compounds_3D_F|sdf|566|dock10|1
     RDKit          3D

 21 22  0  0  0  0  0  0  0  0999 V2000
  -12.4157  -19.7887   10.0952 O   0  0  0  0  0  0  0  0  0  0  0  0
  -13.4694  -19.9149    9.2651 C   0  0  0  0  0  0  0  0  0  0  0  0
  -13.8609  -18.9564    8.6309 O   0  0  0  0  0  0  0  0  0  0  0  0
  -14.1502  -21.2215    9.1276 C   0  0  0  0  0  0  0  0  0  0  0  0
  -15.0846  -21.4057    8.1916 N   0  0  0  0  0  0  0  0  0  0  0  0
  -15.6955  -22.5668    8.0647 C   0  0  0  0  0  0  0  0  0  0  0  0
  -16.6366  -22.7106    7.1002 O   0  0  0  0  0  0  0  0  0  0  0  0
  -15.4180  -23.5977    8.8492 N   0  0  0  0  0  0  0  0  0  0  0  0
  -14.5048  -23.5023    9.8029 C   0  0  0  0  0  0  0  0  0  0  0  0
  -14.2292  -24.5631   10.6002 O   0  0  0  0  0  0  0  0  0  0  0  0
  -13.8226  -22.2857    9.9736 C   0  0  0  0  0  0  0  0  0  0  0  0
  -12.8543  -22.1401   10.9666 N   0  0  0  0  0  0  0  0  0  0  0  0
  -13.2128  -22.1549   12.2656 C   0  0  0  0  0  0  0  0  0  0  0  0
  -14.3871  -22.2409   12.5710 O   0  0  0  0  0  0  0  0  0  0  0  0
  -12.1831  -22.0657   13.3156 C   0  0  0  0  0  0  0  0  0  0  0  0
  -10.8395  -22.3358   13.2225 C   0  0  0  0  0  0  0  0  0  0  0  0
  -10.3264  -22.1079   14.4339 O   0  0  0  0  0  0  0  0  0  0  0  0
  -11.1501  -21.7454   15.2380 N   0  0  0  0  0  0  0  0  0  0  0  0
  -12.3394  -21.6594   14.7215 C   0  0  0  0  0  0  0  0  0  0  0  0
  -13.6091  -21.2419   15.4164 C   0  0  0  0  0  0  0  0  0  0  0  0
  -10.0935  -22.7958   11.9970 C   0  0  0  0  0  0  0  0  0  0  0  0
  1  2  1  0
  2  3  2  0
  2  4  1  0
  4  5  2  0
  4 11  1  0
  5  6  1  0
  6  7  1  0
  6  8  2  0
  8  9  1  0
  9 10  1  0
  9 11  2  0
 11 12  1  0
 12 13  1  0
 13 14  2  0
 13 15  1  0
 15 16  2  0
 15 19  1  0
 16 17  1  0
 16 21  1  0
 17 18  1  0
 18 19  2  0
 19 20  1  0
M  END
>  <Gold.Gold.Protein.RotatedWaterAtoms>  (830) 


>  <Gold.Id.Protein>  (830) 


>  <Gold.PLP.Chemscore.CHOScore>  (830) 
0.0000

>  <Gold.PLP.Chemscore.Hbond>  (830) 
3.9920

>  <Gold.PLP.Chemscore.Internal.Correction>  (830) 
1.1580

>  <Gold.PLP.Chemscore.Metal>  (830) 
0.0000

>  <Gold.PLP.Fitness>  (830) 
43.3205

>  <Gold.PLP.PLP>  (830) 
-31.9083

>  <Gold.PLP.ligand.clash>  (830) 
0.0000

>  <Gold.PLP.ligand.torsion>  (830) 
0.8609

>  <Gold.PLP.part.buried>  (830) 
-7.5926

>  <Gold.PLP.part.hbond>  (830) 
-5.6866

>  <Gold.PLP.part.metal>  (830) 
0.0000

>  <Gold.PLP.part.nonpolar>  (830) 
-20.1038

>  <Gold.PLP.part.repulsive>  (830) 
1.2380

>  <Gold.Protein.RotatedAtoms>  (830) 


>  <Gold.Protein.RotatedTorsions>  (830) 


>  <Gold.Protein.RotatedWaterAtoms>  (830) 


>  <Gold.Version>  (830) 
5.3.0

>  <PLP.Chemscore.CHOScore>  (830) 


>  <PLP.Chemscore.Hbond>  (830) 


>  <PLP.Chemscore.Internal.Correction>  (830) 


>  <PLP.Chemscore.Metal>  (830) 


>  <PLP.Fitness>  (830) 


>  <PLP.PLP>  (830) 


>  <PLP.ligand.clash>  (830) 


>  <PLP.ligand.torsion>  (830) 


>  <PLP.part.buried>  (830) 


>  <PLP.part.hbond>  (830) 


>  <PLP.part.metal>  (830) 


>  <PLP.part.nonpolar>  (830) 


>  <PLP.part.repulsive>  (830) 


>  <Version>  (830) 


$$$$
3830|Compound_1945|Compounds_3D_F|sdf|567|dock10|1
     RDKit          3D

 20 21  0  0  0  0  0  0  0  0999 V2000
   -8.1369  -16.8014   11.5345 N   0  0  0  0  0  0  0  0  0  0  0  0
   -8.3785  -15.4755   11.5582 C   0  0  0  0  0  0  0  0  0  0  0  0
   -9.4668  -15.0505   11.2241 O   0  0  0  0  0  0  0  0  0  0  0  0
   -7.3224  -14.5422   11.9895 C   0  0  0  0  0  0  0  0  0  0  0  0
   -7.3549  -13.1693   12.0236 C   0  0  0  0  0  0  0  0  0  0  0  0
   -6.1650  -12.7778   12.4860 O   0  0  0  0  0  0  0  0  0  0  0  0
   -5.4259  -13.6978   12.7345 N   0  0  0  0  0  0  0  0  0  0  0  0
   -5.9763  -14.8513   12.4951 C   0  0  0  0  0  0  0  0  0  0  0  0
   -5.3619  -16.2150   12.6847 C   0  0  0  0  0  0  0  0  0  0  0  0
   -8.5030  -12.2820   11.6184 C   0  0  0  0  0  0  0  0  0  0  0  0
   -9.1274  -17.6788   11.1246 C   0  0  0  0  0  0  0  0  0  0  0  0
  -10.2422  -17.3405   10.5330 N   0  0  0  0  0  0  0  0  0  0  0  0
  -10.9580  -18.4731   10.2865 C   0  0  0  0  0  0  0  0  0  0  0  0
  -10.2279  -19.5209   10.7566 C   0  0  0  0  0  0  0  0  0  0  0  0
   -9.0929  -19.0135   11.2685 O   0  0  0  0  0  0  0  0  0  0  0  0
  -12.2764  -18.5501    9.6345 C   0  0  0  0  0  0  0  0  0  0  0  0
  -12.7997  -17.5439    9.2002 O   0  0  0  0  0  0  0  0  0  0  0  0
  -12.9027  -19.7387    9.5214 O   0  0  0  0  0  0  0  0  0  0  0  0
  -14.1933  -19.7418    8.8560 C   0  0  0  0  0  0  0  0  0  0  0  0
  -14.7509  -21.1669    8.8318 C   0  0  0  0  0  0  0  0  0  0  0  0
  1  2  1  0
  1 11  1  0
  2  3  2  0
  2  4  1  0
  4  5  2  0
  4  8  1  0
  5  6  1  0
  5 10  1  0
  6  7  1  0
  7  8  2  0
  8  9  1  0
 11 12  2  0
 11 15  1  0
 12 13  1  0
 13 14  2  0
 13 16  1  0
 14 15  1  0
 16 17  2  0
 16 18  1  0
 18 19  1  0
 19 20  1  0
M  END
>  <Gold.Gold.Protein.RotatedWaterAtoms>  (831) 


>  <Gold.Id.Protein>  (831) 


>  <Gold.PLP.Chemscore.CHOScore>  (831) 
0.0000

>  <Gold.PLP.Chemscore.Hbond>  (831) 
0.9920

>  <Gold.PLP.Chemscore.Internal.Correction>  (831) 
0.0463

>  <Gold.PLP.Chemscore.Metal>  (831) 
0.0000

>  <Gold.PLP.Fitness>  (831) 
49.0905

>  <Gold.PLP.PLP>  (831) 
-46.1550

>  <Gold.PLP.ligand.clash>  (831) 
0.0000

>  <Gold.PLP.ligand.torsion>  (831) 
0.0434

>  <Gold.PLP.part.buried>  (831) 
-10.1693

>  <Gold.PLP.part.hbond>  (831) 
-2.4276

>  <Gold.PLP.part.metal>  (831) 
0.0000

>  <Gold.PLP.part.nonpolar>  (831) 
-33.9463

>  <Gold.PLP.part.repulsive>  (831) 
0.7129

>  <Gold.Protein.RotatedAtoms>  (831) 


>  <Gold.Protein.RotatedTorsions>  (831) 


>  <Gold.Protein.RotatedWaterAtoms>  (831) 


>  <Gold.Version>  (831) 
5.3.0

>  <PLP.Chemscore.CHOScore>  (831) 


>  <PLP.Chemscore.Hbond>  (831) 


>  <PLP.Chemscore.Internal.Correction>  (831) 


>  <PLP.Chemscore.Metal>  (831) 


>  <PLP.Fitness>  (831) 


>  <PLP.PLP>  (831) 


>  <PLP.ligand.clash>  (831) 


>  <PLP.ligand.torsion>  (831) 


>  <PLP.part.buried>  (831) 


>  <PLP.part.hbond>  (831) 


>  <PLP.part.metal>  (831) 


>  <PLP.part.nonpolar>  (831) 


>  <PLP.part.repulsive>  (831) 


>  <Version>  (831) 


$$$$
3831|Compound_1946|Compounds_3D_F|sdf|568|dock10|1
     RDKit          3D

 19 20  0  0  0  0  0  0  0  0999 V2000
   -8.1999  -15.7639   12.0525 N   0  0  0  0  0  0  0  0  0  0  0  0
   -8.3981  -14.4305   12.0578 C   0  0  0  0  0  0  0  0  0  0  0  0
   -9.5293  -13.9842   12.0702 O   0  0  0  0  0  0  0  0  0  0  0  0
   -7.2434  -13.5145   12.0487 C   0  0  0  0  0  0  0  0  0  0  0  0
   -7.2313  -12.1543   11.8571 C   0  0  0  0  0  0  0  0  0  0  0  0
   -5.9529  -11.7758   11.9370 O   0  0  0  0  0  0  0  0  0  0  0  0
   -5.1990  -12.6935   12.1463 N   0  0  0  0  0  0  0  0  0  0  0  0
   -5.8210  -13.8305   12.2487 C   0  0  0  0  0  0  0  0  0  0  0  0
   -5.2125  -15.1852   12.5069 C   0  0  0  0  0  0  0  0  0  0  0  0
   -8.4216  -11.2662   11.6046 C   0  0  0  0  0  0  0  0  0  0  0  0
   -9.2914  -16.6312   12.0559 C   0  0  0  0  0  0  0  0  0  0  0  0
  -10.5019  -16.3683   12.4722 N   0  0  0  0  0  0  0  0  0  0  0  0
  -11.2313  -17.3256   12.3475 O   0  0  0  0  0  0  0  0  0  0  0  0
  -10.5862  -18.3753   11.8188 C   0  0  0  0  0  0  0  0  0  0  0  0
   -9.3121  -17.9777   11.6027 C   0  0  0  0  0  0  0  0  0  0  0  0
  -11.1691  -19.7329   11.5197 C   0  0  0  0  0  0  0  0  0  0  0  0
  -11.7566  -20.3286   12.8004 C   0  0  0  0  0  0  0  0  0  0  0  0
  -12.2722  -19.5934   10.4688 C   0  0  0  0  0  0  0  0  0  0  0  0
  -10.0699  -20.6532   10.9866 C   0  0  0  0  0  0  0  0  0  0  0  0
  1  2  1  0
  1 11  1  0
  2  3  2  0
  2  4  1  0
  4  5  2  0
  4  8  1  0
  5  6  1  0
  5 10  1  0
  6  7  1  0
  7  8  2  0
  8  9  1  0
 11 12  2  0
 11 15  1  0
 12 13  1  0
 13 14  1  0
 14 15  2  0
 14 16  1  0
 16 17  1  0
 16 18  1  0
 16 19  1  0
M  END
>  <Gold.Gold.Protein.RotatedWaterAtoms>  (832) 


>  <Gold.Id.Protein>  (832) 


>  <Gold.PLP.Chemscore.CHOScore>  (832) 
0.0000

>  <Gold.PLP.Chemscore.Hbond>  (832) 
1.7986

>  <Gold.PLP.Chemscore.Internal.Correction>  (832) 
0.0033

>  <Gold.PLP.Chemscore.Metal>  (832) 
0.0000

>  <Gold.PLP.Fitness>  (832) 
51.5077

>  <Gold.PLP.PLP>  (832) 
-46.4914

>  <Gold.PLP.ligand.clash>  (832) 
0.0000

>  <Gold.PLP.ligand.torsion>  (832) 
0.1913

>  <Gold.PLP.part.buried>  (832) 
-7.7398

>  <Gold.PLP.part.hbond>  (832) 
-4.8744

>  <Gold.PLP.part.metal>  (832) 
0.0000

>  <Gold.PLP.part.nonpolar>  (832) 
-34.4755

>  <Gold.PLP.part.repulsive>  (832) 
0.9855

>  <Gold.Protein.RotatedAtoms>  (832) 


>  <Gold.Protein.RotatedTorsions>  (832) 


>  <Gold.Protein.RotatedWaterAtoms>  (832) 


>  <Gold.Version>  (832) 
5.3.0

>  <PLP.Chemscore.CHOScore>  (832) 


>  <PLP.Chemscore.Hbond>  (832) 


>  <PLP.Chemscore.Internal.Correction>  (832) 


>  <PLP.Chemscore.Metal>  (832) 


>  <PLP.Fitness>  (832) 


>  <PLP.PLP>  (832) 


>  <PLP.ligand.clash>  (832) 


>  <PLP.ligand.torsion>  (832) 


>  <PLP.part.buried>  (832) 


>  <PLP.part.hbond>  (832) 


>  <PLP.part.metal>  (832) 


>  <PLP.part.nonpolar>  (832) 


>  <PLP.part.repulsive>  (832) 


>  <Version>  (832) 


$$$$
3832|Compound_1950|Compounds_3D_F|sdf|570|dock10|1
     RDKit          3D

 28 30  0  0  0  0  0  0  0  0999 V2000
  -13.1118  -18.1212    9.3324 O   0  0  0  0  0  0  0  0  0  0  0  0
  -12.3259  -18.4790   10.3763 C   0  0  0  0  0  0  0  0  0  0  0  0
  -12.7859  -19.3899   11.3392 C   0  0  0  0  0  0  0  0  0  0  0  0
  -13.9369  -20.0848   11.5203 N   0  0  0  0  0  0  0  0  0  0  0  0
  -13.8425  -20.8063   12.5981 C   0  0  0  0  0  0  0  0  0  0  0  0
  -12.6217  -20.6208   13.1778 N   0  0  0  0  0  0  0  0  0  0  0  0
  -11.9284  -19.7263   12.4018 C   0  0  0  0  0  0  0  0  0  0  0  0
  -10.7223  -19.1742   12.4582 N   0  0  0  0  0  0  0  0  0  0  0  0
  -10.3301  -18.3190   11.5292 C   0  0  0  0  0  0  0  0  0  0  0  0
  -11.1048  -17.9789   10.5071 N   0  0  0  0  0  0  0  0  0  0  0  0
   -9.0607  -17.7615   11.6231 N   0  0  0  0  0  0  0  0  0  0  0  0
   -8.9185  -16.4280   11.7523 C   0  0  0  0  0  0  0  0  0  0  0  0
   -9.9008  -15.7122   11.7870 O   0  0  0  0  0  0  0  0  0  0  0  0
   -7.5722  -15.8365   11.8523 C   0  0  0  0  0  0  0  0  0  0  0  0
   -6.3543  -16.4405   11.6582 C   0  0  0  0  0  0  0  0  0  0  0  0
   -5.4311  -15.4980   11.8596 O   0  0  0  0  0  0  0  0  0  0  0  0
   -5.9022  -14.4245   12.1448 N   0  0  0  0  0  0  0  0  0  0  0  0
   -7.2021  -14.4497   12.1779 C   0  0  0  0  0  0  0  0  0  0  0  0
   -8.1300  -13.3060   12.4941 C   0  0  0  0  0  0  0  0  0  0  0  0
   -6.1089  -17.8812   11.2901 C   0  0  0  0  0  0  0  0  0  0  0  0
  -12.1388  -21.2582   14.4056 C   0  0  0  0  0  0  0  0  0  0  0  0
  -10.7728  -21.8973   14.1456 C   0  0  0  0  0  0  0  0  0  0  0  0
  -10.8648  -23.3104   14.3318 O   0  0  0  0  0  0  0  0  0  0  0  0
  -10.1079  -24.0720   13.3879 C   0  0  0  0  0  0  0  0  0  0  0  0
   -8.7748  -24.9621   14.2565 P   0  0  0  0  0  0  0  0  0  0  0  0
   -8.0496  -25.8246   13.2970 O   0  0  0  0  0  0  0  0  0  0  0  0
   -7.7517  -23.8988   14.9007 O   0  0  0  0  0  0  0  0  0  0  0  0
   -9.4080  -25.8719   15.4231 O   0  0  0  0  0  0  0  0  0  0  0  0
  1  2  1  0
  2  3  2  0
  2 10  1  0
  3  4  1  0
  3  7  1  0
  4  5  2  0
  5  6  1  0
  6  7  1  0
  6 21  1  0
  7  8  2  0
  8  9  1  0
  9 10  2  0
  9 11  1  0
 11 12  1  0
 12 13  2  0
 12 14  1  0
 14 15  2  0
 14 18  1  0
 15 16  1  0
 15 20  1  0
 16 17  1  0
 17 18  2  0
 18 19  1  0
 21 22  1  0
 22 23  1  0
 23 24  1  0
 24 25  1  0
 25 26  2  0
 25 27  1  0
 25 28  1  0
M  END
>  <Gold.Gold.Protein.RotatedWaterAtoms>  (833) 


>  <Gold.Id.Protein>  (833) 


>  <Gold.PLP.Chemscore.CHOScore>  (833) 
0.2560

>  <Gold.PLP.Chemscore.Hbond>  (833) 
2.2145

>  <Gold.PLP.Chemscore.Internal.Correction>  (833) 
0.5809

>  <Gold.PLP.Chemscore.Metal>  (833) 
0.0000

>  <Gold.PLP.Fitness>  (833) 
46.3881

>  <Gold.PLP.PLP>  (833) 
-42.7388

>  <Gold.PLP.ligand.clash>  (833) 
0.9007

>  <Gold.PLP.ligand.torsion>  (833) 
1.7213

>  <Gold.PLP.part.buried>  (833) 
-7.1252

>  <Gold.PLP.part.hbond>  (833) 
-2.8737

>  <Gold.PLP.part.metal>  (833) 
0.0000

>  <Gold.PLP.part.nonpolar>  (833) 
-33.3218

>  <Gold.PLP.part.repulsive>  (833) 
0.8509

>  <Gold.Protein.RotatedAtoms>  (833) 


>  <Gold.Protein.RotatedTorsions>  (833) 


>  <Gold.Protein.RotatedWaterAtoms>  (833) 


>  <Gold.Version>  (833) 
5.3.0

>  <PLP.Chemscore.CHOScore>  (833) 


>  <PLP.Chemscore.Hbond>  (833) 


>  <PLP.Chemscore.Internal.Correction>  (833) 


>  <PLP.Chemscore.Metal>  (833) 


>  <PLP.Fitness>  (833) 


>  <PLP.PLP>  (833) 


>  <PLP.ligand.clash>  (833) 


>  <PLP.ligand.torsion>  (833) 


>  <PLP.part.buried>  (833) 


>  <PLP.part.hbond>  (833) 


>  <PLP.part.metal>  (833) 


>  <PLP.part.nonpolar>  (833) 


>  <PLP.part.repulsive>  (833) 


>  <Version>  (833) 


$$$$
3833|Compound_1966|Compounds_3D_F|sdf|573|dock10|1
     RDKit          3D

 19 20  0  0  0  0  0  0  0  0999 V2000
  -10.4256  -20.7524   11.7105 N   0  0  0  0  0  0  0  0  0  0  0  0
  -10.8985  -20.8549   12.9687 C   0  0  0  0  0  0  0  0  0  0  0  0
  -11.6620  -20.0130   13.4015 O   0  0  0  0  0  0  0  0  0  0  0  0
  -10.4900  -21.9875   13.8188 C   0  0  0  0  0  0  0  0  0  0  0  0
  -10.7385  -22.1884   15.1548 C   0  0  0  0  0  0  0  0  0  0  0  0
  -10.1670  -23.3534   15.4716 O   0  0  0  0  0  0  0  0  0  0  0  0
   -9.6167  -23.8809   14.5370 N   0  0  0  0  0  0  0  0  0  0  0  0
   -9.7210  -23.1841   13.4445 C   0  0  0  0  0  0  0  0  0  0  0  0
   -9.1649  -23.5256   12.0856 C   0  0  0  0  0  0  0  0  0  0  0  0
  -11.5011  -21.2761   16.0797 C   0  0  0  0  0  0  0  0  0  0  0  0
  -10.8075  -19.6793   10.9081 C   0  0  0  0  0  0  0  0  0  0  0  0
  -11.8541  -19.6412   10.1300 N   0  0  0  0  0  0  0  0  0  0  0  0
  -11.8778  -18.3757    9.4946 O   0  0  0  0  0  0  0  0  0  0  0  0
  -10.7548  -17.6449    9.9543 N   0  0  0  0  0  0  0  0  0  0  0  0
  -10.1061  -18.3960   10.7988 C   0  0  0  0  0  0  0  0  0  0  0  0
   -8.9399  -18.0438   11.4766 N   0  0  0  0  0  0  0  0  0  0  0  0
   -8.5120  -16.7660   11.4631 C   0  0  0  0  0  0  0  0  0  0  0  0
   -9.1423  -15.9223   10.8610 O   0  0  0  0  0  0  0  0  0  0  0  0
   -7.2515  -16.3845   12.1960 C   0  0  0  0  0  0  0  0  0  0  0  0
  1  2  1  0
  1 11  1  0
  2  3  2  0
  2  4  1  0
  4  5  2  0
  4  8  1  0
  5  6  1  0
  5 10  1  0
  6  7  1  0
  7  8  2  0
  8  9  1  0
 11 12  2  0
 11 15  1  0
 12 13  1  0
 13 14  1  0
 14 15  2  0
 15 16  1  0
 16 17  1  0
 17 18  2  0
 17 19  1  0
M  END
>  <Gold.Gold.Protein.RotatedWaterAtoms>  (834) 


>  <Gold.Id.Protein>  (834) 


>  <Gold.PLP.Chemscore.CHOScore>  (834) 
0.0000

>  <Gold.PLP.Chemscore.Hbond>  (834) 
2.1170

>  <Gold.PLP.Chemscore.Internal.Correction>  (834) 
0.0007

>  <Gold.PLP.Chemscore.Metal>  (834) 
0.0000

>  <Gold.PLP.Fitness>  (834) 
38.3814

>  <Gold.PLP.PLP>  (834) 
-33.6446

>  <Gold.PLP.ligand.clash>  (834) 
0.0000

>  <Gold.PLP.ligand.torsion>  (834) 
0.8075

>  <Gold.PLP.part.buried>  (834) 
-6.5844

>  <Gold.PLP.part.hbond>  (834) 
-4.2708

>  <Gold.PLP.part.metal>  (834) 
0.0000

>  <Gold.PLP.part.nonpolar>  (834) 
-23.1468

>  <Gold.PLP.part.repulsive>  (834) 
0.1914

>  <Gold.Protein.RotatedAtoms>  (834) 


>  <Gold.Protein.RotatedTorsions>  (834) 


>  <Gold.Protein.RotatedWaterAtoms>  (834) 


>  <Gold.Version>  (834) 
5.3.0

>  <PLP.Chemscore.CHOScore>  (834) 


>  <PLP.Chemscore.Hbond>  (834) 


>  <PLP.Chemscore.Internal.Correction>  (834) 


>  <PLP.Chemscore.Metal>  (834) 


>  <PLP.Fitness>  (834) 


>  <PLP.PLP>  (834) 


>  <PLP.ligand.clash>  (834) 


>  <PLP.ligand.torsion>  (834) 


>  <PLP.part.buried>  (834) 


>  <PLP.part.hbond>  (834) 


>  <PLP.part.metal>  (834) 


>  <PLP.part.nonpolar>  (834) 


>  <PLP.part.repulsive>  (834) 


>  <Version>  (834) 


$$$$
3834|Compound_1967|Compounds_3D_F|sdf|574|dock10|1
     RDKit          3D

 20 22  0  0  0  0  0  0  0  0999 V2000
   -9.8964  -20.5460    9.6534 O   0  0  0  0  0  0  0  0  0  0  0  0
  -10.3990  -19.6111   10.4934 C   0  0  0  0  0  0  0  0  0  0  0  0
  -11.6641  -19.7854   11.0878 C   0  0  0  0  0  0  0  0  0  0  0  0
  -12.6020  -20.7470   11.0262 N   0  0  0  0  0  0  0  0  0  0  0  0
  -13.6059  -20.4334   11.7690 N   0  0  0  0  0  0  0  0  0  0  0  0
  -13.3632  -19.1950   12.3822 N   0  0  0  0  0  0  0  0  0  0  0  0
  -12.1333  -18.7803   11.9526 C   0  0  0  0  0  0  0  0  0  0  0  0
  -11.3757  -17.7120   12.1779 N   0  0  0  0  0  0  0  0  0  0  0  0
  -10.1936  -17.5916   11.5976 C   0  0  0  0  0  0  0  0  0  0  0  0
   -9.7093  -18.5160   10.7790 N   0  0  0  0  0  0  0  0  0  0  0  0
   -9.4313  -16.4603   11.8577 N   0  0  0  0  0  0  0  0  0  0  0  0
   -8.0867  -16.5441   11.8759 C   0  0  0  0  0  0  0  0  0  0  0  0
   -7.5408  -17.6102   11.6634 O   0  0  0  0  0  0  0  0  0  0  0  0
   -7.2771  -15.3438   12.1516 C   0  0  0  0  0  0  0  0  0  0  0  0
   -5.9321  -15.2605   12.4184 C   0  0  0  0  0  0  0  0  0  0  0  0
   -5.6651  -13.9650   12.5987 O   0  0  0  0  0  0  0  0  0  0  0  0
   -6.6362  -13.2596   12.4817 N   0  0  0  0  0  0  0  0  0  0  0  0
   -7.7090  -13.9385   12.2020 C   0  0  0  0  0  0  0  0  0  0  0  0
   -9.1010  -13.4016   11.9857 C   0  0  0  0  0  0  0  0  0  0  0  0
   -4.9536  -16.4036   12.4937 C   0  0  0  0  0  0  0  0  0  0  0  0
  1  2  1  0
  2  3  2  0
  2 10  1  0
  3  4  1  0
  3  7  1  0
  4  5  2  0
  5  6  1  0
  6  7  1  0
  7  8  2  0
  8  9  1  0
  9 10  2  0
  9 11  1  0
 11 12  1  0
 12 13  2  0
 12 14  1  0
 14 15  2  0
 14 18  1  0
 15 16  1  0
 15 20  1  0
 16 17  1  0
 17 18  2  0
 18 19  1  0
M  END
>  <Gold.Gold.Protein.RotatedWaterAtoms>  (835) 


>  <Gold.Id.Protein>  (835) 


>  <Gold.PLP.Chemscore.CHOScore>  (835) 
0.0000

>  <Gold.PLP.Chemscore.Hbond>  (835) 
0.9316

>  <Gold.PLP.Chemscore.Internal.Correction>  (835) 
0.4085

>  <Gold.PLP.Chemscore.Metal>  (835) 
0.0000

>  <Gold.PLP.Fitness>  (835) 
39.7409

>  <Gold.PLP.PLP>  (835) 
-37.0878

>  <Gold.PLP.ligand.clash>  (835) 
0.0000

>  <Gold.PLP.ligand.torsion>  (835) 
0.2750

>  <Gold.PLP.part.buried>  (835) 
-8.1225

>  <Gold.PLP.part.hbond>  (835) 
-3.7259

>  <Gold.PLP.part.metal>  (835) 
0.0000

>  <Gold.PLP.part.nonpolar>  (835) 
-26.5593

>  <Gold.PLP.part.repulsive>  (835) 
0.7302

>  <Gold.Protein.RotatedAtoms>  (835) 


>  <Gold.Protein.RotatedTorsions>  (835) 


>  <Gold.Protein.RotatedWaterAtoms>  (835) 


>  <Gold.Version>  (835) 
5.3.0

>  <PLP.Chemscore.CHOScore>  (835) 


>  <PLP.Chemscore.Hbond>  (835) 


>  <PLP.Chemscore.Internal.Correction>  (835) 


>  <PLP.Chemscore.Metal>  (835) 


>  <PLP.Fitness>  (835) 


>  <PLP.PLP>  (835) 


>  <PLP.ligand.clash>  (835) 


>  <PLP.ligand.torsion>  (835) 


>  <PLP.part.buried>  (835) 


>  <PLP.part.hbond>  (835) 


>  <PLP.part.metal>  (835) 


>  <PLP.part.nonpolar>  (835) 


>  <PLP.part.repulsive>  (835) 


>  <Version>  (835) 


$$$$
3835|Compound_2036|Compounds_3D_F|sdf|584|dock10|1
     RDKit          3D

 17 18  0  0  0  0  0  0  0  0999 V2000
   -9.5659  -16.8424   10.9558 N   0  0  0  0  0  0  0  0  0  0  0  0
   -8.4569  -16.1949   11.3656 C   0  0  0  0  0  0  0  0  0  0  0  0
   -7.4416  -16.8192   11.6023 O   0  0  0  0  0  0  0  0  0  0  0  0
   -8.4761  -14.7290   11.5261 C   0  0  0  0  0  0  0  0  0  0  0  0
   -7.5584  -13.9621   12.1918 C   0  0  0  0  0  0  0  0  0  0  0  0
   -8.0459  -12.6451   12.0412 C   0  0  0  0  0  0  0  0  0  0  0  0
   -9.1422  -12.7313   11.3444 N   0  0  0  0  0  0  0  0  0  0  0  0
   -9.3968  -13.8740   11.0427 O   0  0  0  0  0  0  0  0  0  0  0  0
   -9.5494  -18.2278   10.8090 C   0  0  0  0  0  0  0  0  0  0  0  0
   -8.5106  -18.9995   10.9669 N   0  0  0  0  0  0  0  0  0  0  0  0
   -8.9203  -20.3351   10.7273 O   0  0  0  0  0  0  0  0  0  0  0  0
  -10.3008  -20.3083   10.4108 N   0  0  0  0  0  0  0  0  0  0  0  0
  -10.6983  -19.0674   10.4579 C   0  0  0  0  0  0  0  0  0  0  0  0
  -11.9946  -18.6156   10.2083 N   0  0  0  0  0  0  0  0  0  0  0  0
  -12.8377  -19.3622    9.4689 C   0  0  0  0  0  0  0  0  0  0  0  0
  -12.4702  -20.4275    9.0201 O   0  0  0  0  0  0  0  0  0  0  0  0
  -14.2381  -18.8741    9.1997 C   0  0  0  0  0  0  0  0  0  0  0  0
  1  2  1  0
  1  9  1  0
  2  3  2  0
  2  4  1  0
  4  5  2  0
  4  8  1  0
  5  6  1  0
  6  7  2  0
  7  8  1  0
  9 10  2  0
  9 13  1  0
 10 11  1  0
 11 12  1  0
 12 13  2  0
 13 14  1  0
 14 15  1  0
 15 16  2  0
 15 17  1  0
M  END
>  <Gold.Gold.Protein.RotatedWaterAtoms>  (836) 


>  <Gold.Id.Protein>  (836) 


>  <Gold.PLP.Chemscore.CHOScore>  (836) 
0.0000

>  <Gold.PLP.Chemscore.Hbond>  (836) 
1.6400

>  <Gold.PLP.Chemscore.Internal.Correction>  (836) 
0.0004

>  <Gold.PLP.Chemscore.Metal>  (836) 
0.0000

>  <Gold.PLP.Fitness>  (836) 
36.0014

>  <Gold.PLP.PLP>  (836) 
-31.5238

>  <Gold.PLP.ligand.clash>  (836) 
0.0000

>  <Gold.PLP.ligand.torsion>  (836) 
0.2215

>  <Gold.PLP.part.buried>  (836) 
-7.9013

>  <Gold.PLP.part.hbond>  (836) 
-2.0000

>  <Gold.PLP.part.metal>  (836) 
0.0000

>  <Gold.PLP.part.nonpolar>  (836) 
-21.6543

>  <Gold.PLP.part.repulsive>  (836) 
0.8378

>  <Gold.Protein.RotatedAtoms>  (836) 


>  <Gold.Protein.RotatedTorsions>  (836) 


>  <Gold.Protein.RotatedWaterAtoms>  (836) 


>  <Gold.Version>  (836) 
5.3.0

>  <PLP.Chemscore.CHOScore>  (836) 


>  <PLP.Chemscore.Hbond>  (836) 


>  <PLP.Chemscore.Internal.Correction>  (836) 


>  <PLP.Chemscore.Metal>  (836) 


>  <PLP.Fitness>  (836) 


>  <PLP.PLP>  (836) 


>  <PLP.ligand.clash>  (836) 


>  <PLP.ligand.torsion>  (836) 


>  <PLP.part.buried>  (836) 


>  <PLP.part.hbond>  (836) 


>  <PLP.part.metal>  (836) 


>  <PLP.part.nonpolar>  (836) 


>  <PLP.part.repulsive>  (836) 


>  <Version>  (836) 


$$$$
3836|Compound_2058|Compounds_3D_F|sdf|594|dock10|1
     RDKit          3D

 31 35  0  0  0  0  0  0  0  0999 V2000
  -10.0058  -16.3468   11.9619 N   0  0  0  0  0  0  0  0  0  0  0  0
   -8.7775  -16.3150   11.4080 C   0  0  0  0  0  0  0  0  0  0  0  0
   -8.4536  -17.1642   10.5994 O   0  0  0  0  0  0  0  0  0  0  0  0
   -7.8275  -15.2520   11.7815 C   0  0  0  0  0  0  0  0  0  0  0  0
   -6.4462  -15.5268   11.8540 C   0  0  0  0  0  0  0  0  0  0  0  0
   -5.7067  -16.6347   11.6455 N   0  0  0  0  0  0  0  0  0  0  0  0
   -4.4470  -16.3678   11.8455 C   0  0  0  0  0  0  0  0  0  0  0  0
   -4.2977  -15.0643   12.1979 N   0  0  0  0  0  0  0  0  0  0  0  0
   -5.5579  -14.4988   12.2118 C   0  0  0  0  0  0  0  0  0  0  0  0
   -6.0420  -13.2292   12.4894 C   0  0  0  0  0  0  0  0  0  0  0  0
   -7.3963  -12.9702   12.4137 C   0  0  0  0  0  0  0  0  0  0  0  0
   -8.2856  -13.9667   12.0590 C   0  0  0  0  0  0  0  0  0  0  0  0
  -10.8954  -17.3485   11.6161 C   0  0  0  0  0  0  0  0  0  0  0  0
  -11.4687  -18.1691   12.4591 N   0  0  0  0  0  0  0  0  0  0  0  0
  -12.2823  -19.0241   11.7837 C   0  0  0  0  0  0  0  0  0  0  0  0
  -12.1900  -18.6920   10.4224 C   0  0  0  0  0  0  0  0  0  0  0  0
  -11.3106  -17.6246   10.3445 N   0  0  0  0  0  0  0  0  0  0  0  0
  -12.9196  -19.4060    9.4831 C   0  0  0  0  0  0  0  0  0  0  0  0
  -13.7363  -20.4447    9.8922 C   0  0  0  0  0  0  0  0  0  0  0  0
  -14.4512  -21.1454    8.9711 O   0  0  0  0  0  0  0  0  0  0  0  0
  -13.8714  -22.2399    8.4119 C   0  0  0  0  0  0  0  0  0  0  0  0
  -14.6506  -23.3289    8.0450 C   0  0  0  0  0  0  0  0  0  0  0  0
  -16.3676  -23.2937    8.2998 Cl  0  0  0  0  0  0  0  0  0  0  0  0
  -14.0570  -24.4415    7.4765 C   0  0  0  0  0  0  0  0  0  0  0  0
  -15.0291  -25.8043    7.0177 Cl  0  0  0  0  0  0  0  0  0  0  0  0
  -12.6882  -24.4686    7.2728 C   0  0  0  0  0  0  0  0  0  0  0  0
  -11.9114  -23.3842    7.6372 C   0  0  0  0  0  0  0  0  0  0  0  0
  -12.4998  -22.2693    8.2010 C   0  0  0  0  0  0  0  0  0  0  0  0
  -13.8300  -20.7772   11.2413 C   0  0  0  0  0  0  0  0  0  0  0  0
  -14.8587  -22.0831   11.7386 Cl  0  0  0  0  0  0  0  0  0  0  0  0
  -13.1101  -20.0761   12.1830 C   0  0  0  0  0  0  0  0  0  0  0  0
  1  2  1  0
  1 13  1  0
  2  3  2  0
  2  4  1  0
  4  5  2  0
  4 12  1  0
  5  6  1  0
  5  9  1  0
  6  7  2  0
  7  8  1  0
  8  9  1  0
  9 10  2  0
 10 11  1  0
 11 12  2  0
 13 14  2  0
 13 17  1  0
 14 15  1  0
 15 16  2  0
 15 31  1  0
 16 17  1  0
 16 18  1  0
 18 19  2  0
 19 20  1  0
 19 29  1  0
 20 21  1  0
 21 22  2  0
 21 28  1  0
 22 23  1  0
 22 24  1  0
 24 25  1  0
 24 26  2  0
 26 27  1  0
 27 28  2  0
 29 30  1  0
 29 31  2  0
M  END
>  <Gold.Gold.Protein.RotatedWaterAtoms>  (837) 


>  <Gold.Id.Protein>  (837) 


>  <Gold.PLP.Chemscore.CHOScore>  (837) 
0.0000

>  <Gold.PLP.Chemscore.Hbond>  (837) 
2.0000

>  <Gold.PLP.Chemscore.Internal.Correction>  (837) 
0.0539

>  <Gold.PLP.Chemscore.Metal>  (837) 
0.0000

>  <Gold.PLP.Fitness>  (837) 
67.7029

>  <Gold.PLP.PLP>  (837) 
-65.1586

>  <Gold.PLP.ligand.clash>  (837) 
0.0000

>  <Gold.PLP.ligand.torsion>  (837) 
1.7548

>  <Gold.PLP.part.buried>  (837) 
-7.1936

>  <Gold.PLP.part.hbond>  (837) 
-4.4277

>  <Gold.PLP.part.metal>  (837) 
0.0000

>  <Gold.PLP.part.nonpolar>  (837) 
-53.5631

>  <Gold.PLP.part.repulsive>  (837) 
0.5645

>  <Gold.Protein.RotatedAtoms>  (837) 


>  <Gold.Protein.RotatedTorsions>  (837) 


>  <Gold.Protein.RotatedWaterAtoms>  (837) 


>  <Gold.Version>  (837) 
5.3.0

>  <PLP.Chemscore.CHOScore>  (837) 


>  <PLP.Chemscore.Hbond>  (837) 


>  <PLP.Chemscore.Internal.Correction>  (837) 


>  <PLP.Chemscore.Metal>  (837) 


>  <PLP.Fitness>  (837) 


>  <PLP.PLP>  (837) 


>  <PLP.ligand.clash>  (837) 


>  <PLP.ligand.torsion>  (837) 


>  <PLP.part.buried>  (837) 


>  <PLP.part.hbond>  (837) 


>  <PLP.part.metal>  (837) 


>  <PLP.part.nonpolar>  (837) 


>  <PLP.part.repulsive>  (837) 


>  <Version>  (837) 


$$$$
3837|Compound_2059|Compounds_3D_F|sdf|595|dock10|1
     RDKit          3D

 21 23  0  0  0  0  0  0  0  0999 V2000
   -8.7333  -16.7201   10.2426 N   0  0  0  0  0  0  0  0  0  0  0  0
   -8.8932  -15.9605   11.3447 C   0  0  0  0  0  0  0  0  0  0  0  0
   -9.9118  -16.0513   12.0029 O   0  0  0  0  0  0  0  0  0  0  0  0
   -7.8331  -15.0205   11.7512 C   0  0  0  0  0  0  0  0  0  0  0  0
   -6.4926  -15.4516   11.8280 C   0  0  0  0  0  0  0  0  0  0  0  0
   -5.8808  -16.6305   11.5978 N   0  0  0  0  0  0  0  0  0  0  0  0
   -4.6013  -16.5128   11.8144 C   0  0  0  0  0  0  0  0  0  0  0  0
   -4.3092  -15.2434   12.1991 N   0  0  0  0  0  0  0  0  0  0  0  0
   -5.4973  -14.5391   12.2175 C   0  0  0  0  0  0  0  0  0  0  0  0
   -5.8371  -13.2295   12.5230 C   0  0  0  0  0  0  0  0  0  0  0  0
   -7.1537  -12.8173   12.4444 C   0  0  0  0  0  0  0  0  0  0  0  0
   -8.1468  -13.6980   12.0573 C   0  0  0  0  0  0  0  0  0  0  0  0
   -9.7315  -17.6008    9.8566 C   0  0  0  0  0  0  0  0  0  0  0  0
   -9.5869  -18.6463    9.0802 N   0  0  0  0  0  0  0  0  0  0  0  0
  -10.7232  -19.2316    8.9373 N   0  0  0  0  0  0  0  0  0  0  0  0
  -11.6314  -18.5874    9.6124 C   0  0  0  0  0  0  0  0  0  0  0  0
  -11.0271  -17.5456   10.2148 O   0  0  0  0  0  0  0  0  0  0  0  0
  -13.0911  -18.9479    9.7082 C   0  0  0  0  0  0  0  0  0  0  0  0
  -13.8657  -17.8962    9.2087 F   0  0  0  0  0  0  0  0  0  0  0  0
  -13.3366  -20.1042    8.9598 F   0  0  0  0  0  0  0  0  0  0  0  0
  -13.4265  -19.1789   11.0468 F   0  0  0  0  0  0  0  0  0  0  0  0
  1  2  1  0
  1 13  1  0
  2  3  2  0
  2  4  1  0
  4  5  2  0
  4 12  1  0
  5  6  1  0
  5  9  1  0
  6  7  2  0
  7  8  1  0
  8  9  1  0
  9 10  2  0
 10 11  1  0
 11 12  2  0
 13 14  2  0
 13 17  1  0
 14 15  1  0
 15 16  2  0
 16 17  1  0
 16 18  1  0
 18 19  1  0
 18 20  1  0
 18 21  1  0
M  END
>  <Gold.Gold.Protein.RotatedWaterAtoms>  (838) 


>  <Gold.Id.Protein>  (838) 


>  <Gold.PLP.Chemscore.CHOScore>  (838) 
0.0000

>  <Gold.PLP.Chemscore.Hbond>  (838) 
2.0000

>  <Gold.PLP.Chemscore.Internal.Correction>  (838) 
0.0004

>  <Gold.PLP.Chemscore.Metal>  (838) 
0.0000

>  <Gold.PLP.Fitness>  (838) 
57.4851

>  <Gold.PLP.PLP>  (838) 
-53.3885

>  <Gold.PLP.ligand.clash>  (838) 
0.0000

>  <Gold.PLP.ligand.torsion>  (838) 
0.9519

>  <Gold.PLP.part.buried>  (838) 
-7.9123

>  <Gold.PLP.part.hbond>  (838) 
-5.0500

>  <Gold.PLP.part.metal>  (838) 
0.0000

>  <Gold.PLP.part.nonpolar>  (838) 
-40.5853

>  <Gold.PLP.part.repulsive>  (838) 
0.2545

>  <Gold.Protein.RotatedAtoms>  (838) 


>  <Gold.Protein.RotatedTorsions>  (838) 


>  <Gold.Protein.RotatedWaterAtoms>  (838) 


>  <Gold.Version>  (838) 
5.3.0

>  <PLP.Chemscore.CHOScore>  (838) 


>  <PLP.Chemscore.Hbond>  (838) 


>  <PLP.Chemscore.Internal.Correction>  (838) 


>  <PLP.Chemscore.Metal>  (838) 


>  <PLP.Fitness>  (838) 


>  <PLP.PLP>  (838) 


>  <PLP.ligand.clash>  (838) 


>  <PLP.ligand.torsion>  (838) 


>  <PLP.part.buried>  (838) 


>  <PLP.part.hbond>  (838) 


>  <PLP.part.metal>  (838) 


>  <PLP.part.nonpolar>  (838) 


>  <PLP.part.repulsive>  (838) 


>  <Version>  (838) 


$$$$
3838|Compound_2061|Compounds_3D_F|sdf|596|dock10|1
     RDKit          3D

 21 23  0  0  0  0  0  0  0  0999 V2000
   -8.9474  -16.5854   11.4363 N   0  0  0  0  0  0  0  0  0  0  0  0
   -9.0278  -15.3353   11.9342 C   0  0  0  0  0  0  0  0  0  0  0  0
  -10.1109  -14.8665   12.2278 O   0  0  0  0  0  0  0  0  0  0  0  0
   -7.8028  -14.5375   12.1225 C   0  0  0  0  0  0  0  0  0  0  0  0
   -6.5379  -15.1604   12.0934 C   0  0  0  0  0  0  0  0  0  0  0  0
   -6.1331  -16.4342   11.9187 N   0  0  0  0  0  0  0  0  0  0  0  0
   -4.8329  -16.4956   11.9776 C   0  0  0  0  0  0  0  0  0  0  0  0
   -4.3180  -15.2579   12.1962 N   0  0  0  0  0  0  0  0  0  0  0  0
   -5.3825  -14.3813   12.2749 C   0  0  0  0  0  0  0  0  0  0  0  0
   -5.4924  -13.0138   12.4794 C   0  0  0  0  0  0  0  0  0  0  0  0
   -6.7366  -12.4133   12.5062 C   0  0  0  0  0  0  0  0  0  0  0  0
   -7.8851  -13.1616   12.3255 C   0  0  0  0  0  0  0  0  0  0  0  0
  -10.1022  -17.3364   11.2536 C   0  0  0  0  0  0  0  0  0  0  0  0
  -11.0772  -17.6231   12.1064 N   0  0  0  0  0  0  0  0  0  0  0  0
  -12.0681  -18.3271   11.7712 N   0  0  0  0  0  0  0  0  0  0  0  0
  -12.1986  -18.8232   10.5563 C   0  0  0  0  0  0  0  0  0  0  0  0
  -10.7056  -18.1875    9.7979 S   0  0  0  0  0  0  0  0  0  0  0  0
  -13.2939  -19.6768    9.9712 C   0  0  0  0  0  0  0  0  0  0  0  0
  -13.8993  -18.9962    8.9097 F   0  0  0  0  0  0  0  0  0  0  0  0
  -12.7499  -20.8784    9.5054 F   0  0  0  0  0  0  0  0  0  0  0  0
  -14.2490  -19.9490   10.9565 F   0  0  0  0  0  0  0  0  0  0  0  0
  1  2  1  0
  1 13  1  0
  2  3  2  0
  2  4  1  0
  4  5  2  0
  4 12  1  0
  5  6  1  0
  5  9  1  0
  6  7  2  0
  7  8  1  0
  8  9  1  0
  9 10  2  0
 10 11  1  0
 11 12  2  0
 13 14  2  0
 13 17  1  0
 14 15  1  0
 15 16  2  0
 16 17  1  0
 16 18  1  0
 18 19  1  0
 18 20  1  0
 18 21  1  0
M  END
>  <Gold.Gold.Protein.RotatedWaterAtoms>  (839) 


>  <Gold.Id.Protein>  (839) 


>  <Gold.PLP.Chemscore.CHOScore>  (839) 
0.0000

>  <Gold.PLP.Chemscore.Hbond>  (839) 
1.9696

>  <Gold.PLP.Chemscore.Internal.Correction>  (839) 
0.0003

>  <Gold.PLP.Chemscore.Metal>  (839) 
0.0000

>  <Gold.PLP.Fitness>  (839) 
57.0563

>  <Gold.PLP.PLP>  (839) 
-52.3248

>  <Gold.PLP.ligand.clash>  (839) 
0.0000

>  <Gold.PLP.ligand.torsion>  (839) 
0.5888

>  <Gold.PLP.part.buried>  (839) 
-5.5647

>  <Gold.PLP.part.hbond>  (839) 
-4.4905

>  <Gold.PLP.part.metal>  (839) 
0.0000

>  <Gold.PLP.part.nonpolar>  (839) 
-43.3642

>  <Gold.PLP.part.repulsive>  (839) 
0.3821

>  <Gold.Protein.RotatedAtoms>  (839) 


>  <Gold.Protein.RotatedTorsions>  (839) 


>  <Gold.Protein.RotatedWaterAtoms>  (839) 


>  <Gold.Version>  (839) 
5.3.0

>  <PLP.Chemscore.CHOScore>  (839) 


>  <PLP.Chemscore.Hbond>  (839) 


>  <PLP.Chemscore.Internal.Correction>  (839) 


>  <PLP.Chemscore.Metal>  (839) 


>  <PLP.Fitness>  (839) 


>  <PLP.PLP>  (839) 


>  <PLP.ligand.clash>  (839) 


>  <PLP.ligand.torsion>  (839) 


>  <PLP.part.buried>  (839) 


>  <PLP.part.hbond>  (839) 


>  <PLP.part.metal>  (839) 


>  <PLP.part.nonpolar>  (839) 


>  <PLP.part.repulsive>  (839) 


>  <Version>  (839) 


$$$$
3839|Compound_2067|Compounds_3D_F|sdf|599|dock10|1
     RDKit          3D

 22 24  0  0  0  0  0  0  0  0999 V2000
   -8.8850  -16.6685   11.8559 N   0  0  0  0  0  0  0  0  0  0  0  0
   -9.0837  -15.3693   12.1551 C   0  0  0  0  0  0  0  0  0  0  0  0
  -10.2025  -14.9690   12.4096 O   0  0  0  0  0  0  0  0  0  0  0  0
   -7.9441  -14.4361   12.1732 C   0  0  0  0  0  0  0  0  0  0  0  0
   -6.6218  -14.9289   12.1803 C   0  0  0  0  0  0  0  0  0  0  0  0
   -6.0924  -16.1685   12.1747 N   0  0  0  0  0  0  0  0  0  0  0  0
   -4.7917  -16.0924   12.1870 C   0  0  0  0  0  0  0  0  0  0  0  0
   -4.4018  -14.7914   12.2008 N   0  0  0  0  0  0  0  0  0  0  0  0
   -5.5487  -14.0217   12.1974 C   0  0  0  0  0  0  0  0  0  0  0  0
   -5.7937  -12.6566   12.2063 C   0  0  0  0  0  0  0  0  0  0  0  0
   -7.0921  -12.1839   12.1992 C   0  0  0  0  0  0  0  0  0  0  0  0
   -8.1616  -13.0600   12.1782 C   0  0  0  0  0  0  0  0  0  0  0  0
   -9.9490  -17.5404   11.8338 C   0  0  0  0  0  0  0  0  0  0  0  0
   -9.9597  -18.8493   11.3439 C   0  0  0  0  0  0  0  0  0  0  0  0
  -11.3028  -19.2715   11.5712 C   0  0  0  0  0  0  0  0  0  0  0  0
  -11.9120  -18.2678   12.1241 N   0  0  0  0  0  0  0  0  0  0  0  0
  -11.1917  -17.3122   12.2829 O   0  0  0  0  0  0  0  0  0  0  0  0
   -8.8565  -19.6042   10.7408 C   0  0  0  0  0  0  0  0  0  0  0  0
   -9.0355  -20.7465   10.3634 O   0  0  0  0  0  0  0  0  0  0  0  0
   -7.6437  -19.0314   10.6033 O   0  0  0  0  0  0  0  0  0  0  0  0
   -6.6034  -19.8306    9.9816 C   0  0  0  0  0  0  0  0  0  0  0  0
   -5.2670  -19.0896   10.0721 C   0  0  0  0  0  0  0  0  0  0  0  0
  1  2  1  0
  1 13  1  0
  2  3  2  0
  2  4  1  0
  4  5  2  0
  4 12  1  0
  5  6  1  0
  5  9  1  0
  6  7  2  0
  7  8  1  0
  8  9  1  0
  9 10  2  0
 10 11  1  0
 11 12  2  0
 13 14  2  0
 13 17  1  0
 14 15  1  0
 14 18  1  0
 15 16  2  0
 16 17  1  0
 18 19  2  0
 18 20  1  0
 20 21  1  0
 21 22  1  0
M  END
>  <Gold.Gold.Protein.RotatedWaterAtoms>  (840) 


>  <Gold.Id.Protein>  (840) 


>  <Gold.PLP.Chemscore.CHOScore>  (840) 
0.0000

>  <Gold.PLP.Chemscore.Hbond>  (840) 
2.0000

>  <Gold.PLP.Chemscore.Internal.Correction>  (840) 
0.0241

>  <Gold.PLP.Chemscore.Metal>  (840) 
0.0000

>  <Gold.PLP.Fitness>  (840) 
56.1154

>  <Gold.PLP.PLP>  (840) 
-50.3642

>  <Gold.PLP.ligand.clash>  (840) 
0.0000

>  <Gold.PLP.ligand.torsion>  (840) 
0.1364

>  <Gold.PLP.part.buried>  (840) 
-7.1624

>  <Gold.PLP.part.hbond>  (840) 
-5.5824

>  <Gold.PLP.part.metal>  (840) 
0.0000

>  <Gold.PLP.part.nonpolar>  (840) 
-38.3969

>  <Gold.PLP.part.repulsive>  (840) 
0.5494

>  <Gold.Protein.RotatedAtoms>  (840) 


>  <Gold.Protein.RotatedTorsions>  (840) 


>  <Gold.Protein.RotatedWaterAtoms>  (840) 


>  <Gold.Version>  (840) 
5.3.0

>  <PLP.Chemscore.CHOScore>  (840) 


>  <PLP.Chemscore.Hbond>  (840) 


>  <PLP.Chemscore.Internal.Correction>  (840) 


>  <PLP.Chemscore.Metal>  (840) 


>  <PLP.Fitness>  (840) 


>  <PLP.PLP>  (840) 


>  <PLP.ligand.clash>  (840) 


>  <PLP.ligand.torsion>  (840) 


>  <PLP.part.buried>  (840) 


>  <PLP.part.hbond>  (840) 


>  <PLP.part.metal>  (840) 


>  <PLP.part.nonpolar>  (840) 


>  <PLP.part.repulsive>  (840) 


>  <Version>  (840) 


$$$$
3840|Compound_2069|Compounds_3D_F|sdf|600|dock10|1
     RDKit          3D

 17 19  0  0  0  0  0  0  0  0999 V2000
   -8.9645  -16.9675   11.5859 N   0  0  0  0  0  0  0  0  0  0  0  0
   -9.1757  -15.7586   12.1436 C   0  0  0  0  0  0  0  0  0  0  0  0
  -10.2629  -15.4894   12.6173 O   0  0  0  0  0  0  0  0  0  0  0  0
   -8.0886  -14.7639   12.1789 C   0  0  0  0  0  0  0  0  0  0  0  0
   -6.7419  -15.1830   12.1776 C   0  0  0  0  0  0  0  0  0  0  0  0
   -6.1446  -16.3910   12.1489 N   0  0  0  0  0  0  0  0  0  0  0  0
   -4.8501  -16.2432   12.1630 C   0  0  0  0  0  0  0  0  0  0  0  0
   -4.5329  -14.9230   12.2004 N   0  0  0  0  0  0  0  0  0  0  0  0
   -5.7207  -14.2182   12.2113 C   0  0  0  0  0  0  0  0  0  0  0  0
   -6.0410  -12.8691   12.2457 C   0  0  0  0  0  0  0  0  0  0  0  0
   -7.3636  -12.4691   12.2476 C   0  0  0  0  0  0  0  0  0  0  0  0
   -8.3830  -13.4025   12.2085 C   0  0  0  0  0  0  0  0  0  0  0  0
   -9.9888  -17.9025   11.5477 C   0  0  0  0  0  0  0  0  0  0  0  0
  -11.1253  -17.8422   12.2045 N   0  0  0  0  0  0  0  0  0  0  0  0
  -11.8504  -18.8697   11.9444 N   0  0  0  0  0  0  0  0  0  0  0  0
  -11.2415  -19.6501   11.1173 N   0  0  0  0  0  0  0  0  0  0  0  0
  -10.0068  -19.0453   10.8239 N   0  0  0  0  0  0  0  0  0  0  0  0
  1  2  1  0
  1 13  1  0
  2  3  2  0
  2  4  1  0
  4  5  2  0
  4 12  1  0
  5  6  1  0
  5  9  1  0
  6  7  2  0
  7  8  1  0
  8  9  1  0
  9 10  2  0
 10 11  1  0
 11 12  2  0
 13 14  2  0
 13 17  1  0
 14 15  1  0
 15 16  2  0
 16 17  1  0
M  END
>  <Gold.Gold.Protein.RotatedWaterAtoms>  (841) 


>  <Gold.Id.Protein>  (841) 


>  <Gold.PLP.Chemscore.CHOScore>  (841) 
0.0000

>  <Gold.PLP.Chemscore.Hbond>  (841) 
2.8234

>  <Gold.PLP.Chemscore.Internal.Correction>  (841) 
0.0001

>  <Gold.PLP.Chemscore.Metal>  (841) 
0.0000

>  <Gold.PLP.Fitness>  (841) 
47.8062

>  <Gold.PLP.PLP>  (841) 
-40.0234

>  <Gold.PLP.ligand.clash>  (841) 
0.0000

>  <Gold.PLP.ligand.torsion>  (841) 
0.3438

>  <Gold.PLP.part.buried>  (841) 
-8.2932

>  <Gold.PLP.part.hbond>  (841) 
-5.2568

>  <Gold.PLP.part.metal>  (841) 
0.0000

>  <Gold.PLP.part.nonpolar>  (841) 
-29.0435

>  <Gold.PLP.part.repulsive>  (841) 
1.6189

>  <Gold.Protein.RotatedAtoms>  (841) 


>  <Gold.Protein.RotatedTorsions>  (841) 


>  <Gold.Protein.RotatedWaterAtoms>  (841) 


>  <Gold.Version>  (841) 
5.3.0

>  <PLP.Chemscore.CHOScore>  (841) 


>  <PLP.Chemscore.Hbond>  (841) 


>  <PLP.Chemscore.Internal.Correction>  (841) 


>  <PLP.Chemscore.Metal>  (841) 


>  <PLP.Fitness>  (841) 


>  <PLP.PLP>  (841) 


>  <PLP.ligand.clash>  (841) 


>  <PLP.ligand.torsion>  (841) 


>  <PLP.part.buried>  (841) 


>  <PLP.part.hbond>  (841) 


>  <PLP.part.metal>  (841) 


>  <PLP.part.nonpolar>  (841) 


>  <PLP.part.repulsive>  (841) 


>  <Version>  (841) 


$$$$
3841|Compound_2092|Compounds_3D_F|sdf|607|dock10|1
     RDKit          3D

 31 35  0  0  0  0  0  0  0  0999 V2000
   -8.8197  -21.3489    7.7311 O   0  0  0  0  0  0  0  0  0  0  0  0
   -9.1780  -20.7041    8.8675 C   0  0  0  0  0  0  0  0  0  0  0  0
   -8.5441  -19.6032    9.2490 N   0  0  0  0  0  0  0  0  0  0  0  0
   -8.8875  -18.9637   10.3595 C   0  0  0  0  0  0  0  0  0  0  0  0
   -9.8686  -19.3831   11.1406 N   0  0  0  0  0  0  0  0  0  0  0  0
  -10.5551  -20.4779   10.8338 C   0  0  0  0  0  0  0  0  0  0  0  0
  -10.2298  -21.1838    9.6634 C   0  0  0  0  0  0  0  0  0  0  0  0
  -11.0716  -22.2435    9.5894 N   0  0  0  0  0  0  0  0  0  0  0  0
  -11.8731  -22.2328   10.6141 C   0  0  0  0  0  0  0  0  0  0  0  0
  -11.5972  -21.1597   11.4103 N   0  0  0  0  0  0  0  0  0  0  0  0
  -12.2821  -20.8049   12.6556 C   0  0  0  0  0  0  0  0  0  0  0  0
  -11.3907  -20.9624   13.7817 O   0  0  0  0  0  0  0  0  0  0  0  0
  -12.2525  -21.0807   14.9342 C   0  0  0  0  0  0  0  0  0  0  0  0
  -11.5046  -21.7455   16.0924 C   0  0  0  0  0  0  0  0  0  0  0  0
  -10.8048  -22.8949   15.6107 O   0  0  0  0  0  0  0  0  0  0  0  0
  -13.4223  -21.9733   14.4639 C   0  0  0  0  0  0  0  0  0  0  0  0
  -14.6529  -21.5310   15.0403 O   0  0  0  0  0  0  0  0  0  0  0  0
  -13.4436  -21.7852   12.9284 C   0  0  0  0  0  0  0  0  0  0  0  0
  -14.6885  -21.2222   12.5103 O   0  0  0  0  0  0  0  0  0  0  0  0
   -8.1919  -17.8147   10.7145 N   0  0  0  0  0  0  0  0  0  0  0  0
   -8.8279  -16.8118   11.3529 C   0  0  0  0  0  0  0  0  0  0  0  0
  -10.0105  -16.9132   11.6167 O   0  0  0  0  0  0  0  0  0  0  0  0
   -8.0908  -15.5936   11.7296 C   0  0  0  0  0  0  0  0  0  0  0  0
   -6.6848  -15.6189   11.8446 C   0  0  0  0  0  0  0  0  0  0  0  0
   -5.7575  -16.5820   11.6768 N   0  0  0  0  0  0  0  0  0  0  0  0
   -4.5700  -16.0951   11.9046 C   0  0  0  0  0  0  0  0  0  0  0  0
   -4.6619  -14.7804   12.2338 N   0  0  0  0  0  0  0  0  0  0  0  0
   -6.0027  -14.4455   12.2047 C   0  0  0  0  0  0  0  0  0  0  0  0
   -6.7089  -13.2767   12.4440 C   0  0  0  0  0  0  0  0  0  0  0  0
   -8.0856  -13.2616   12.3302 C   0  0  0  0  0  0  0  0  0  0  0  0
   -8.7757  -14.4050   11.9706 C   0  0  0  0  0  0  0  0  0  0  0  0
  1  2  1  0
  2  3  2  0
  2  7  1  0
  3  4  1  0
  4  5  2  0
  4 20  1  0
  5  6  1  0
  6  7  2  0
  6 10  1  0
  7  8  1  0
  8  9  2  0
  9 10  1  0
 10 11  1  0
 11 12  1  0
 11 18  1  0
 12 13  1  0
 13 14  1  0
 13 16  1  0
 14 15  1  0
 16 17  1  0
 16 18  1  0
 18 19  1  0
 20 21  1  0
 21 22  2  0
 21 23  1  0
 23 24  2  0
 23 31  1  0
 24 25  1  0
 24 28  1  0
 25 26  2  0
 26 27  1  0
 27 28  1  0
 28 29  2  0
 29 30  1  0
 30 31  2  0
M  END
>  <Gold.Gold.Protein.RotatedWaterAtoms>  (842) 


>  <Gold.Id.Protein>  (842) 


>  <Gold.PLP.Chemscore.CHOScore>  (842) 
0.0000

>  <Gold.PLP.Chemscore.Hbond>  (842) 
3.5200

>  <Gold.PLP.Chemscore.Internal.Correction>  (842) 
0.4473

>  <Gold.PLP.Chemscore.Metal>  (842) 
0.0000

>  <Gold.PLP.Fitness>  (842) 
66.5967

>  <Gold.PLP.PLP>  (842) 
-56.6945

>  <Gold.PLP.ligand.clash>  (842) 
0.0000

>  <Gold.PLP.ligand.torsion>  (842) 
0.5526

>  <Gold.PLP.part.buried>  (842) 
-12.3188

>  <Gold.PLP.part.hbond>  (842) 
-6.3127

>  <Gold.PLP.part.metal>  (842) 
0.0000

>  <Gold.PLP.part.nonpolar>  (842) 
-38.3850

>  <Gold.PLP.part.repulsive>  (842) 
0.2278

>  <Gold.Protein.RotatedAtoms>  (842) 


>  <Gold.Protein.RotatedTorsions>  (842) 


>  <Gold.Protein.RotatedWaterAtoms>  (842) 


>  <Gold.Version>  (842) 
5.3.0

>  <PLP.Chemscore.CHOScore>  (842) 


>  <PLP.Chemscore.Hbond>  (842) 


>  <PLP.Chemscore.Internal.Correction>  (842) 


>  <PLP.Chemscore.Metal>  (842) 


>  <PLP.Fitness>  (842) 


>  <PLP.PLP>  (842) 


>  <PLP.ligand.clash>  (842) 


>  <PLP.ligand.torsion>  (842) 


>  <PLP.part.buried>  (842) 


>  <PLP.part.hbond>  (842) 


>  <PLP.part.metal>  (842) 


>  <PLP.part.nonpolar>  (842) 


>  <PLP.part.repulsive>  (842) 


>  <Version>  (842) 


$$$$
3842|Compound_2102|Compounds_3D_F|sdf|611|dock10|1
     RDKit          3D

 19 20  0  0  0  0  0  0  0  0999 V2000
   -6.6731  -17.6111   10.7135 O   0  0  0  0  0  0  0  0  0  0  0  0
   -7.7592  -18.3885   10.5377 C   0  0  0  0  0  0  0  0  0  0  0  0
   -7.6741  -19.4127    9.8918 O   0  0  0  0  0  0  0  0  0  0  0  0
   -9.0546  -17.9944   11.1330 C   0  0  0  0  0  0  0  0  0  0  0  0
  -10.1423  -18.7473   10.9523 N   0  0  0  0  0  0  0  0  0  0  0  0
  -11.3002  -18.4020   11.4810 C   0  0  0  0  0  0  0  0  0  0  0  0
  -12.3795  -19.1966   11.2732 O   0  0  0  0  0  0  0  0  0  0  0  0
  -11.4418  -17.3046   12.2098 N   0  0  0  0  0  0  0  0  0  0  0  0
  -10.4152  -16.5008   12.4376 C   0  0  0  0  0  0  0  0  0  0  0  0
  -10.5715  -15.3806   13.1846 O   0  0  0  0  0  0  0  0  0  0  0  0
   -9.1593  -16.8301   11.9003 C   0  0  0  0  0  0  0  0  0  0  0  0
   -8.0512  -16.0126   12.1168 N   0  0  0  0  0  0  0  0  0  0  0  0
   -8.0571  -14.7386   11.6761 C   0  0  0  0  0  0  0  0  0  0  0  0
   -9.0066  -14.3184   11.0448 O   0  0  0  0  0  0  0  0  0  0  0  0
   -6.9097  -13.8532   11.9614 C   0  0  0  0  0  0  0  0  0  0  0  0
   -5.6340  -14.1778   11.8973 N   0  0  0  0  0  0  0  0  0  0  0  0
   -4.9053  -13.1662   12.2089 N   0  0  0  0  0  0  0  0  0  0  0  0
   -5.6842  -12.1030   12.5003 C   0  0  0  0  0  0  0  0  0  0  0  0
   -6.9705  -12.4942   12.3494 C   0  0  0  0  0  0  0  0  0  0  0  0
  1  2  1  0
  2  3  2  0
  2  4  1  0
  4  5  2  0
  4 11  1  0
  5  6  1  0
  6  7  1  0
  6  8  2  0
  8  9  1  0
  9 10  1  0
  9 11  2  0
 11 12  1  0
 12 13  1  0
 13 14  2  0
 13 15  1  0
 15 16  2  0
 15 19  1  0
 16 17  1  0
 17 18  1  0
 18 19  2  0
M  END
>  <Gold.Gold.Protein.RotatedWaterAtoms>  (843) 


>  <Gold.Id.Protein>  (843) 


>  <Gold.PLP.Chemscore.CHOScore>  (843) 
0.4685

>  <Gold.PLP.Chemscore.Hbond>  (843) 
2.0422

>  <Gold.PLP.Chemscore.Internal.Correction>  (843) 
1.1561

>  <Gold.PLP.Chemscore.Metal>  (843) 
0.0000

>  <Gold.PLP.Fitness>  (843) 
42.2833

>  <Gold.PLP.PLP>  (843) 
-36.0820

>  <Gold.PLP.ligand.clash>  (843) 
0.0000

>  <Gold.PLP.ligand.torsion>  (843) 
1.2434

>  <Gold.PLP.part.buried>  (843) 
-2.3724

>  <Gold.PLP.part.hbond>  (843) 
-7.9658

>  <Gold.PLP.part.metal>  (843) 
0.0000

>  <Gold.PLP.part.nonpolar>  (843) 
-26.1039

>  <Gold.PLP.part.repulsive>  (843) 
0.5496

>  <Gold.Protein.RotatedAtoms>  (843) 


>  <Gold.Protein.RotatedTorsions>  (843) 


>  <Gold.Protein.RotatedWaterAtoms>  (843) 


>  <Gold.Version>  (843) 
5.3.0

>  <PLP.Chemscore.CHOScore>  (843) 


>  <PLP.Chemscore.Hbond>  (843) 


>  <PLP.Chemscore.Internal.Correction>  (843) 


>  <PLP.Chemscore.Metal>  (843) 


>  <PLP.Fitness>  (843) 


>  <PLP.PLP>  (843) 


>  <PLP.ligand.clash>  (843) 


>  <PLP.ligand.torsion>  (843) 


>  <PLP.part.buried>  (843) 


>  <PLP.part.hbond>  (843) 


>  <PLP.part.metal>  (843) 


>  <PLP.part.nonpolar>  (843) 


>  <PLP.part.repulsive>  (843) 


>  <Version>  (843) 


$$$$
3843|Compound_2116|Compounds_3D_F|sdf|616|dock10|1
     RDKit          3D

 17 18  0  0  0  0  0  0  0  0999 V2000
  -10.0709  -18.9092   10.6465 N   0  0  0  0  0  0  0  0  0  0  0  0
  -11.1089  -18.4256   11.3577 C   0  0  0  0  0  0  0  0  0  0  0  0
  -10.9160  -17.6028   12.2308 O   0  0  0  0  0  0  0  0  0  0  0  0
  -12.4814  -18.8965   11.0747 C   0  0  0  0  0  0  0  0  0  0  0  0
  -13.4664  -18.9745   11.9419 N   0  0  0  0  0  0  0  0  0  0  0  0
  -14.5125  -19.4262   11.3395 N   0  0  0  0  0  0  0  0  0  0  0  0
  -14.2000  -19.6482   10.0500 C   0  0  0  0  0  0  0  0  0  0  0  0
  -12.9450  -19.3163    9.8834 N   0  0  0  0  0  0  0  0  0  0  0  0
   -8.7799  -18.4708   10.9153 C   0  0  0  0  0  0  0  0  0  0  0  0
   -7.6125  -19.0453   10.6563 N   0  0  0  0  0  0  0  0  0  0  0  0
   -6.5195  -18.5021   10.9720 N   0  0  0  0  0  0  0  0  0  0  0  0
   -6.4657  -17.3320   11.5781 C   0  0  0  0  0  0  0  0  0  0  0  0
   -8.2144  -16.9648   11.7025 S   0  0  0  0  0  0  0  0  0  0  0  0
   -5.2734  -16.5301   12.0319 C   0  0  0  0  0  0  0  0  0  0  0  0
   -5.7007  -15.2841   12.5022 F   0  0  0  0  0  0  0  0  0  0  0  0
   -4.6148  -17.2155   13.0581 F   0  0  0  0  0  0  0  0  0  0  0  0
   -4.3971  -16.3477   10.9566 F   0  0  0  0  0  0  0  0  0  0  0  0
  1  2  1  0
  1  9  1  0
  2  3  2  0
  2  4  1  0
  4  5  2  0
  4  8  1  0
  5  6  1  0
  6  7  1  0
  7  8  2  0
  9 10  2  0
  9 13  1  0
 10 11  1  0
 11 12  2  0
 12 13  1  0
 12 14  1  0
 14 15  1  0
 14 16  1  0
 14 17  1  0
M  END
>  <Gold.Gold.Protein.RotatedWaterAtoms>  (844) 


>  <Gold.Id.Protein>  (844) 


>  <Gold.PLP.Chemscore.CHOScore>  (844) 
0.0000

>  <Gold.PLP.Chemscore.Hbond>  (844) 
2.8393

>  <Gold.PLP.Chemscore.Internal.Correction>  (844) 
0.0002

>  <Gold.PLP.Chemscore.Metal>  (844) 
0.0000

>  <Gold.PLP.Fitness>  (844) 
39.9368

>  <Gold.PLP.PLP>  (844) 
-32.5892

>  <Gold.PLP.ligand.clash>  (844) 
0.0000

>  <Gold.PLP.ligand.torsion>  (844) 
0.5852

>  <Gold.PLP.part.buried>  (844) 
-3.8161

>  <Gold.PLP.part.hbond>  (844) 
-3.0000

>  <Gold.PLP.part.metal>  (844) 
0.0000

>  <Gold.PLP.part.nonpolar>  (844) 
-26.2480

>  <Gold.PLP.part.repulsive>  (844) 
0.1909

>  <Gold.Protein.RotatedAtoms>  (844) 


>  <Gold.Protein.RotatedTorsions>  (844) 


>  <Gold.Protein.RotatedWaterAtoms>  (844) 


>  <Gold.Version>  (844) 
5.3.0

>  <PLP.Chemscore.CHOScore>  (844) 


>  <PLP.Chemscore.Hbond>  (844) 


>  <PLP.Chemscore.Internal.Correction>  (844) 


>  <PLP.Chemscore.Metal>  (844) 


>  <PLP.Fitness>  (844) 


>  <PLP.PLP>  (844) 


>  <PLP.ligand.clash>  (844) 


>  <PLP.ligand.torsion>  (844) 


>  <PLP.part.buried>  (844) 


>  <PLP.part.hbond>  (844) 


>  <PLP.part.metal>  (844) 


>  <PLP.part.nonpolar>  (844) 


>  <PLP.part.repulsive>  (844) 


>  <Version>  (844) 


$$$$
3844|Compound_2118|Compounds_3D_F|sdf|617|dock10|1
     RDKit          3D

 19 20  0  0  0  0  0  0  0  0999 V2000
   -7.9025  -13.5039   11.8293 O   0  0  0  0  0  0  0  0  0  0  0  0
   -8.5477  -14.5911   11.3639 C   0  0  0  0  0  0  0  0  0  0  0  0
   -9.5611  -14.9766   11.9118 O   0  0  0  0  0  0  0  0  0  0  0  0
   -8.0227  -15.3140   10.1849 C   0  0  0  0  0  0  0  0  0  0  0  0
   -6.9052  -14.9055    9.5795 N   0  0  0  0  0  0  0  0  0  0  0  0
   -6.4313  -15.5459    8.5284 C   0  0  0  0  0  0  0  0  0  0  0  0
   -5.2944  -15.0960    7.9436 O   0  0  0  0  0  0  0  0  0  0  0  0
   -7.0323  -16.6154    8.0267 N   0  0  0  0  0  0  0  0  0  0  0  0
   -8.1451  -17.0880    8.5653 C   0  0  0  0  0  0  0  0  0  0  0  0
   -8.7504  -18.1822    8.0441 O   0  0  0  0  0  0  0  0  0  0  0  0
   -8.6855  -16.4422    9.6905 C   0  0  0  0  0  0  0  0  0  0  0  0
   -9.8552  -16.9064   10.2896 N   0  0  0  0  0  0  0  0  0  0  0  0
   -9.8727  -18.1139   10.8886 C   0  0  0  0  0  0  0  0  0  0  0  0
   -8.8841  -18.8210   10.8610 O   0  0  0  0  0  0  0  0  0  0  0  0
  -11.0937  -18.5782   11.5802 C   0  0  0  0  0  0  0  0  0  0  0  0
  -11.1803  -19.6123   12.3881 N   0  0  0  0  0  0  0  0  0  0  0  0
  -12.3958  -19.7131   12.8012 N   0  0  0  0  0  0  0  0  0  0  0  0
  -13.1187  -18.7208   12.2495 C   0  0  0  0  0  0  0  0  0  0  0  0
  -12.3130  -18.0145   11.4983 N   0  0  0  0  0  0  0  0  0  0  0  0
  1  2  1  0
  2  3  2  0
  2  4  1  0
  4  5  2  0
  4 11  1  0
  5  6  1  0
  6  7  1  0
  6  8  2  0
  8  9  1  0
  9 10  1  0
  9 11  2  0
 11 12  1  0
 12 13  1  0
 13 14  2  0
 13 15  1  0
 15 16  2  0
 15 19  1  0
 16 17  1  0
 17 18  1  0
 18 19  2  0
M  END
>  <Gold.Gold.Protein.RotatedWaterAtoms>  (845) 


>  <Gold.Id.Protein>  (845) 


>  <Gold.PLP.Chemscore.CHOScore>  (845) 
0.9991

>  <Gold.PLP.Chemscore.Hbond>  (845) 
2.8222

>  <Gold.PLP.Chemscore.Internal.Correction>  (845) 
1.1562

>  <Gold.PLP.Chemscore.Metal>  (845) 
0.0000

>  <Gold.PLP.Fitness>  (845) 
40.5495

>  <Gold.PLP.PLP>  (845) 
-29.2980

>  <Gold.PLP.ligand.clash>  (845) 
0.0000

>  <Gold.PLP.ligand.torsion>  (845) 
0.6844

>  <Gold.PLP.part.buried>  (845) 
-5.3160

>  <Gold.PLP.part.hbond>  (845) 
-7.4107

>  <Gold.PLP.part.metal>  (845) 
0.0000

>  <Gold.PLP.part.nonpolar>  (845) 
-16.3053

>  <Gold.PLP.part.repulsive>  (845) 
0.4805

>  <Gold.Protein.RotatedAtoms>  (845) 


>  <Gold.Protein.RotatedTorsions>  (845) 


>  <Gold.Protein.RotatedWaterAtoms>  (845) 


>  <Gold.Version>  (845) 
5.3.0

>  <PLP.Chemscore.CHOScore>  (845) 


>  <PLP.Chemscore.Hbond>  (845) 


>  <PLP.Chemscore.Internal.Correction>  (845) 


>  <PLP.Chemscore.Metal>  (845) 


>  <PLP.Fitness>  (845) 


>  <PLP.PLP>  (845) 


>  <PLP.ligand.clash>  (845) 


>  <PLP.ligand.torsion>  (845) 


>  <PLP.part.buried>  (845) 


>  <PLP.part.hbond>  (845) 


>  <PLP.part.metal>  (845) 


>  <PLP.part.nonpolar>  (845) 


>  <PLP.part.repulsive>  (845) 


>  <Version>  (845) 


$$$$
3845|Compound_2125|Compounds_3D_F|sdf|620|dock10|1
     RDKit          3D

 24 26  0  0  0  0  0  0  0  0999 V2000
  -14.0876  -20.5437   14.2451 O   0  0  0  0  0  0  0  0  0  0  0  0
  -13.2603  -20.7484   13.1935 C   0  0  0  0  0  0  0  0  0  0  0  0
  -13.4809  -21.8179   12.3037 C   0  0  0  0  0  0  0  0  0  0  0  0
  -14.4026  -22.7938   12.2244 N   0  0  0  0  0  0  0  0  0  0  0  0
  -14.1658  -23.5434   11.2047 N   0  0  0  0  0  0  0  0  0  0  0  0
  -13.0259  -23.0734   10.5352 N   0  0  0  0  0  0  0  0  0  0  0  0
  -12.5882  -21.9797   11.2289 C   0  0  0  0  0  0  0  0  0  0  0  0
  -11.5780  -21.1274   11.0901 N   0  0  0  0  0  0  0  0  0  0  0  0
  -11.4107  -20.1373   11.9505 C   0  0  0  0  0  0  0  0  0  0  0  0
  -12.2300  -19.9438   12.9754 N   0  0  0  0  0  0  0  0  0  0  0  0
  -10.3428  -19.2676   11.7720 N   0  0  0  0  0  0  0  0  0  0  0  0
  -10.4904  -17.9559   12.0425 C   0  0  0  0  0  0  0  0  0  0  0  0
  -11.5583  -17.5341   12.4430 O   0  0  0  0  0  0  0  0  0  0  0  0
   -9.3557  -17.0310   11.8538 C   0  0  0  0  0  0  0  0  0  0  0  0
   -9.4735  -15.6909   12.2333 C   0  0  0  0  0  0  0  0  0  0  0  0
   -8.4129  -14.8321   12.0539 C   0  0  0  0  0  0  0  0  0  0  0  0
   -7.2263  -15.2953   11.4973 C   0  0  0  0  0  0  0  0  0  0  0  0
   -6.1831  -14.4456   11.3237 O   0  0  0  0  0  0  0  0  0  0  0  0
   -6.1363  -13.2940   12.1690 C   0  0  0  0  0  0  0  0  0  0  0  0
   -7.0413  -12.2020   11.5943 C   0  0  0  0  0  0  0  0  0  0  0  0
   -6.5517  -10.8328   12.0674 C   0  0  0  0  0  0  0  0  0  0  0  0
   -7.7121   -9.8357   12.0317 C   0  0  0  0  0  0  0  0  0  0  0  0
   -7.1048  -16.6273   11.1195 C   0  0  0  0  0  0  0  0  0  0  0  0
   -8.1594  -17.4943   11.2997 C   0  0  0  0  0  0  0  0  0  0  0  0
  1  2  1  0
  2  3  2  0
  2 10  1  0
  3  4  1  0
  3  7  1  0
  4  5  2  0
  5  6  1  0
  6  7  1  0
  7  8  2  0
  8  9  1  0
  9 10  2  0
  9 11  1  0
 11 12  1  0
 12 13  2  0
 12 14  1  0
 14 15  2  0
 14 24  1  0
 15 16  1  0
 16 17  2  0
 17 18  1  0
 17 23  1  0
 18 19  1  0
 19 20  1  0
 20 21  1  0
 21 22  1  0
 23 24  2  0
M  END
>  <Gold.Gold.Protein.RotatedWaterAtoms>  (846) 


>  <Gold.Id.Protein>  (846) 


>  <Gold.PLP.Chemscore.CHOScore>  (846) 
0.0000

>  <Gold.PLP.Chemscore.Hbond>  (846) 
2.8500

>  <Gold.PLP.Chemscore.Internal.Correction>  (846) 
1.1408

>  <Gold.PLP.Chemscore.Metal>  (846) 
0.0000

>  <Gold.PLP.Fitness>  (846) 
54.7781

>  <Gold.PLP.PLP>  (846) 
-47.1157

>  <Gold.PLP.ligand.clash>  (846) 
0.0041

>  <Gold.PLP.ligand.torsion>  (846) 
1.0122

>  <Gold.PLP.part.buried>  (846) 
-3.6670

>  <Gold.PLP.part.hbond>  (846) 
-5.9467

>  <Gold.PLP.part.metal>  (846) 
0.0000

>  <Gold.PLP.part.nonpolar>  (846) 
-37.9304

>  <Gold.PLP.part.repulsive>  (846) 
0.3981

>  <Gold.Protein.RotatedAtoms>  (846) 


>  <Gold.Protein.RotatedTorsions>  (846) 


>  <Gold.Protein.RotatedWaterAtoms>  (846) 


>  <Gold.Version>  (846) 
5.3.0

>  <PLP.Chemscore.CHOScore>  (846) 


>  <PLP.Chemscore.Hbond>  (846) 


>  <PLP.Chemscore.Internal.Correction>  (846) 


>  <PLP.Chemscore.Metal>  (846) 


>  <PLP.Fitness>  (846) 


>  <PLP.PLP>  (846) 


>  <PLP.ligand.clash>  (846) 


>  <PLP.ligand.torsion>  (846) 


>  <PLP.part.buried>  (846) 


>  <PLP.part.hbond>  (846) 


>  <PLP.part.metal>  (846) 


>  <PLP.part.nonpolar>  (846) 


>  <PLP.part.repulsive>  (846) 


>  <Version>  (846) 


$$$$
3846|Compound_2138|Compounds_3D_F|sdf|628|dock10|1
     RDKit          3D

 38 42  0  0  0  0  0  0  0  0999 V2000
  -13.2463  -18.1400    9.8612 O   0  0  0  0  0  0  0  0  0  0  0  0
  -12.0274  -18.5092   10.3233 C   0  0  0  0  0  0  0  0  0  0  0  0
  -11.6104  -19.8469   10.2528 C   0  0  0  0  0  0  0  0  0  0  0  0
  -12.1667  -20.9953    9.7922 N   0  0  0  0  0  0  0  0  0  0  0  0
  -11.3354  -21.9806    9.9689 C   0  0  0  0  0  0  0  0  0  0  0  0
  -10.1909  -21.5257   10.5547 N   0  0  0  0  0  0  0  0  0  0  0  0
  -10.3352  -20.1745   10.7470 C   0  0  0  0  0  0  0  0  0  0  0  0
   -9.5745  -19.2146   11.2597 N   0  0  0  0  0  0  0  0  0  0  0  0
  -10.0083  -17.9664   11.3073 C   0  0  0  0  0  0  0  0  0  0  0  0
  -11.2023  -17.6134   10.8477 N   0  0  0  0  0  0  0  0  0  0  0  0
   -9.1838  -16.9894   11.8514 N   0  0  0  0  0  0  0  0  0  0  0  0
   -8.1671  -16.4848   11.1256 C   0  0  0  0  0  0  0  0  0  0  0  0
   -7.9710  -16.8839    9.9944 O   0  0  0  0  0  0  0  0  0  0  0  0
   -7.2904  -15.4445   11.7049 C   0  0  0  0  0  0  0  0  0  0  0  0
   -6.0005  -15.7698   12.1262 C   0  0  0  0  0  0  0  0  0  0  0  0
   -5.1872  -14.7945   12.6654 C   0  0  0  0  0  0  0  0  0  0  0  0
   -5.6490  -13.4958   12.7896 C   0  0  0  0  0  0  0  0  0  0  0  0
   -6.9279  -13.1673   12.3740 C   0  0  0  0  0  0  0  0  0  0  0  0
   -7.7480  -14.1312   11.8277 C   0  0  0  0  0  0  0  0  0  0  0  0
   -9.1398  -13.7714   11.3758 C   0  0  0  0  0  0  0  0  0  0  0  0
   -5.4956  -17.1838   11.9921 C   0  0  0  0  0  0  0  0  0  0  0  0
   -9.0207  -22.3315   10.9130 C   0  0  0  0  0  0  0  0  0  0  0  0
   -8.8686  -23.4189    9.9759 O   0  0  0  0  0  0  0  0  0  0  0  0
   -8.8360  -24.6353   10.7021 C   0  0  0  0  0  0  0  0  0  0  0  0
   -9.3441  -25.8780   10.0019 C   0  0  0  0  0  0  0  0  0  0  0  0
   -9.0739  -26.9944   10.8833 O   0  0  0  0  0  0  0  0  0  0  0  0
   -9.5067  -26.9231   12.4468 P   0  0  0  0  0  0  0  0  0  0  0  0
   -8.6283  -27.7984   13.2545 O   0  0  0  0  0  0  0  0  0  0  0  0
  -11.0414  -27.3802   12.6140 O   0  0  0  0  0  0  0  0  0  0  0  0
   -9.3307  -25.3711   12.9160 O   0  0  0  0  0  0  0  0  0  0  0  0
   -9.7123  -24.3710   11.9568 C   0  0  0  0  0  0  0  0  0  0  0  0
   -9.2206  -22.9536   12.3207 C   0  0  0  0  0  0  0  0  0  0  0  0
  -10.2249  -22.2339   13.0840 O   0  0  0  0  0  0  0  0  0  0  0  0
  -10.3133  -22.5158   14.3933 C   0  0  0  0  0  0  0  0  0  0  0  0
   -9.5777  -23.3386   14.8848 O   0  0  0  0  0  0  0  0  0  0  0  0
  -11.3284  -21.8050   15.2506 C   0  0  0  0  0  0  0  0  0  0  0  0
  -12.4256  -21.2164   14.3610 C   0  0  0  0  0  0  0  0  0  0  0  0
  -13.7457  -21.1857   15.1330 C   0  0  0  0  0  0  0  0  0  0  0  0
  1  2  1  0
  2  3  2  0
  2 10  1  0
  3  4  1  0
  3  7  1  0
  4  5  2  0
  5  6  1  0
  6  7  1  0
  6 22  1  0
  7  8  2  0
  8  9  1  0
  9 10  2  0
  9 11  1  0
 11 12  1  0
 12 13  2  0
 12 14  1  0
 14 15  2  0
 14 19  1  0
 15 16  1  0
 15 21  1  0
 16 17  2  0
 17 18  1  0
 18 19  2  0
 19 20  1  0
 22 23  1  0
 22 32  1  0
 23 24  1  0
 24 25  1  0
 24 31  1  0
 25 26  1  0
 26 27  1  0
 27 28  2  0
 27 29  1  0
 27 30  1  0
 30 31  1  0
 31 32  1  0
 32 33  1  0
 33 34  1  0
 34 35  2  0
 34 36  1  0
 36 37  1  0
 37 38  1  0
M  END
>  <Gold.Gold.Protein.RotatedWaterAtoms>  (847) 


>  <Gold.Id.Protein>  (847) 


>  <Gold.PLP.Chemscore.CHOScore>  (847) 
0.0000

>  <Gold.PLP.Chemscore.Hbond>  (847) 
2.0000

>  <Gold.PLP.Chemscore.Internal.Correction>  (847) 
2.8216

>  <Gold.PLP.Chemscore.Metal>  (847) 
0.0000

>  <Gold.PLP.Fitness>  (847) 
61.8962

>  <Gold.PLP.PLP>  (847) 
-59.9617

>  <Gold.PLP.ligand.clash>  (847) 
0.0000

>  <Gold.PLP.ligand.torsion>  (847) 
3.4436

>  <Gold.PLP.part.buried>  (847) 
-8.8894

>  <Gold.PLP.part.hbond>  (847) 
-1.8179

>  <Gold.PLP.part.metal>  (847) 
0.0000

>  <Gold.PLP.part.nonpolar>  (847) 
-50.7458

>  <Gold.PLP.part.repulsive>  (847) 
0.1186

>  <Gold.Protein.RotatedAtoms>  (847) 


>  <Gold.Protein.RotatedTorsions>  (847) 


>  <Gold.Protein.RotatedWaterAtoms>  (847) 


>  <Gold.Version>  (847) 
5.3.0

>  <PLP.Chemscore.CHOScore>  (847) 


>  <PLP.Chemscore.Hbond>  (847) 


>  <PLP.Chemscore.Internal.Correction>  (847) 


>  <PLP.Chemscore.Metal>  (847) 


>  <PLP.Fitness>  (847) 


>  <PLP.PLP>  (847) 


>  <PLP.ligand.clash>  (847) 


>  <PLP.ligand.torsion>  (847) 


>  <PLP.part.buried>  (847) 


>  <PLP.part.hbond>  (847) 


>  <PLP.part.metal>  (847) 


>  <PLP.part.nonpolar>  (847) 


>  <PLP.part.repulsive>  (847) 


>  <Version>  (847) 


$$$$
3847|Compound_2148|Compounds_3D_F|sdf|629|dock10|1
     RDKit          3D

 26 29  0  0  0  0  0  0  0  0999 V2000
  -10.1155  -20.7332    9.7187 O   0  0  0  0  0  0  0  0  0  0  0  0
  -10.6740  -19.8296   10.5574 C   0  0  0  0  0  0  0  0  0  0  0  0
  -11.9766  -20.0220   11.0584 C   0  0  0  0  0  0  0  0  0  0  0  0
  -12.9084  -20.9773   10.8972 N   0  0  0  0  0  0  0  0  0  0  0  0
  -13.9596  -20.6901   11.5822 N   0  0  0  0  0  0  0  0  0  0  0  0
  -13.7592  -19.4757   12.2561 N   0  0  0  0  0  0  0  0  0  0  0  0
  -12.5023  -19.0492   11.9267 C   0  0  0  0  0  0  0  0  0  0  0  0
  -11.7614  -17.9921   12.2431 N   0  0  0  0  0  0  0  0  0  0  0  0
  -10.5431  -17.8532   11.7491 C   0  0  0  0  0  0  0  0  0  0  0  0
  -10.0048  -18.7481   10.9294 N   0  0  0  0  0  0  0  0  0  0  0  0
   -9.7995  -16.7350   12.1027 N   0  0  0  0  0  0  0  0  0  0  0  0
   -9.0820  -16.0809   11.1680 C   0  0  0  0  0  0  0  0  0  0  0  0
   -9.0851  -16.4696   10.0167 O   0  0  0  0  0  0  0  0  0  0  0  0
   -8.2897  -14.8905   11.5447 C   0  0  0  0  0  0  0  0  0  0  0  0
   -7.0623  -15.0421   12.1915 C   0  0  0  0  0  0  0  0  0  0  0  0
   -6.3281  -13.9268   12.5403 C   0  0  0  0  0  0  0  0  0  0  0  0
   -6.8053  -12.6617   12.2491 C   0  0  0  0  0  0  0  0  0  0  0  0
   -8.0210  -12.5050   11.6080 C   0  0  0  0  0  0  0  0  0  0  0  0
   -8.7630  -13.6104   11.2491 C   0  0  0  0  0  0  0  0  0  0  0  0
   -6.5410  -16.4201   12.5096 C   0  0  0  0  0  0  0  0  0  0  0  0
   -5.3644  -16.7293   11.6204 C   0  0  0  0  0  0  0  0  0  0  0  0
   -4.1329  -17.0178   12.1780 C   0  0  0  0  0  0  0  0  0  0  0  0
   -3.0543  -17.3019   11.3618 C   0  0  0  0  0  0  0  0  0  0  0  0
   -3.2064  -17.2973    9.9873 C   0  0  0  0  0  0  0  0  0  0  0  0
   -4.4379  -17.0088    9.4297 C   0  0  0  0  0  0  0  0  0  0  0  0
   -5.5178  -16.7294   10.2464 C   0  0  0  0  0  0  0  0  0  0  0  0
  1  2  1  0
  2  3  2  0
  2 10  1  0
  3  4  1  0
  3  7  1  0
  4  5  2  0
  5  6  1  0
  6  7  1  0
  7  8  2  0
  8  9  1  0
  9 10  2  0
  9 11  1  0
 11 12  1  0
 12 13  2  0
 12 14  1  0
 14 15  1  0
 14 19  2  0
 15 16  2  0
 15 20  1  0
 16 17  1  0
 17 18  2  0
 18 19  1  0
 20 21  1  0
 21 22  2  0
 21 26  1  0
 22 23  1  0
 23 24  2  0
 24 25  1  0
 25 26  2  0
M  END
>  <Gold.Gold.Protein.RotatedWaterAtoms>  (848) 


>  <Gold.Id.Protein>  (848) 


>  <Gold.PLP.Chemscore.CHOScore>  (848) 
0.0000

>  <Gold.PLP.Chemscore.Hbond>  (848) 
1.6720

>  <Gold.PLP.Chemscore.Internal.Correction>  (848) 
1.7086

>  <Gold.PLP.Chemscore.Metal>  (848) 
0.0000

>  <Gold.PLP.Fitness>  (848) 
56.1130

>  <Gold.PLP.PLP>  (848) 
-53.1603

>  <Gold.PLP.ligand.clash>  (848) 
0.0000

>  <Gold.PLP.ligand.torsion>  (848) 
1.8859

>  <Gold.PLP.part.buried>  (848) 
-6.3540

>  <Gold.PLP.part.hbond>  (848) 
-4.5790

>  <Gold.PLP.part.metal>  (848) 
0.0000

>  <Gold.PLP.part.nonpolar>  (848) 
-42.4348

>  <Gold.PLP.part.repulsive>  (848) 
0.4109

>  <Gold.Protein.RotatedAtoms>  (848) 


>  <Gold.Protein.RotatedTorsions>  (848) 


>  <Gold.Protein.RotatedWaterAtoms>  (848) 


>  <Gold.Version>  (848) 
5.3.0

>  <PLP.Chemscore.CHOScore>  (848) 


>  <PLP.Chemscore.Hbond>  (848) 


>  <PLP.Chemscore.Internal.Correction>  (848) 


>  <PLP.Chemscore.Metal>  (848) 


>  <PLP.Fitness>  (848) 


>  <PLP.PLP>  (848) 


>  <PLP.ligand.clash>  (848) 


>  <PLP.ligand.torsion>  (848) 


>  <PLP.part.buried>  (848) 


>  <PLP.part.hbond>  (848) 


>  <PLP.part.metal>  (848) 


>  <PLP.part.nonpolar>  (848) 


>  <PLP.part.repulsive>  (848) 


>  <Version>  (848) 


$$$$
3848|Compound_2150|Compounds_3D_F|sdf|630|dock10|1
     RDKit          3D

 22 23  0  0  0  0  0  0  0  0999 V2000
   -6.9787  -13.0757   11.6756 N   0  0  0  0  0  0  0  0  0  0  0  0
   -8.0047  -13.9414   11.5541 C   0  0  0  0  0  0  0  0  0  0  0  0
   -9.1488  -13.5322   11.5621 O   0  0  0  0  0  0  0  0  0  0  0  0
   -7.7373  -15.3884   11.4110 C   0  0  0  0  0  0  0  0  0  0  0  0
   -8.7912  -16.2781   11.1972 C   0  0  0  0  0  0  0  0  0  0  0  0
   -8.5354  -17.6264   11.0636 C   0  0  0  0  0  0  0  0  0  0  0  0
   -7.2366  -18.0983   11.1430 C   0  0  0  0  0  0  0  0  0  0  0  0
   -6.1872  -17.2217   11.3546 C   0  0  0  0  0  0  0  0  0  0  0  0
   -6.4289  -15.8700   11.4841 C   0  0  0  0  0  0  0  0  0  0  0  0
   -4.7764  -17.7455   11.4398 C   0  0  0  0  0  0  0  0  0  0  0  0
   -3.8393  -16.8136   10.6697 C   0  0  0  0  0  0  0  0  0  0  0  0
   -4.3436  -17.8065   12.9066 C   0  0  0  0  0  0  0  0  0  0  0  0
   -4.7151  -19.1476   10.8307 C   0  0  0  0  0  0  0  0  0  0  0  0
   -9.6722  -18.5888   10.8330 C   0  0  0  0  0  0  0  0  0  0  0  0
  -10.2698  -18.3485    9.4456 C   0  0  0  0  0  0  0  0  0  0  0  0
   -9.1500  -20.0241   10.9209 C   0  0  0  0  0  0  0  0  0  0  0  0
  -10.7487  -18.3716   11.8977 C   0  0  0  0  0  0  0  0  0  0  0  0
   -7.2288  -11.7204   11.8147 C   0  0  0  0  0  0  0  0  0  0  0  0
   -6.4920  -10.8722   12.4873 N   0  0  0  0  0  0  0  0  0  0  0  0
   -7.0500   -9.6508   12.3954 C   0  0  0  0  0  0  0  0  0  0  0  0
   -8.1576   -9.7612   11.6466 C   0  0  0  0  0  0  0  0  0  0  0  0
   -8.2648  -11.0555   11.2785 O   0  0  0  0  0  0  0  0  0  0  0  0
  1  2  1  0
  1 18  1  0
  2  3  2  0
  2  4  1  0
  4  5  2  0
  4  9  1  0
  5  6  1  0
  6  7  2  0
  6 14  1  0
  7  8  1  0
  8  9  2  0
  8 10  1  0
 10 11  1  0
 10 12  1  0
 10 13  1  0
 14 15  1  0
 14 16  1  0
 14 17  1  0
 18 19  2  0
 18 22  1  0
 19 20  1  0
 20 21  2  0
 21 22  1  0
M  END
>  <Gold.Gold.Protein.RotatedWaterAtoms>  (849) 


>  <Gold.Id.Protein>  (849) 


>  <Gold.PLP.Chemscore.CHOScore>  (849) 
1.7686

>  <Gold.PLP.Chemscore.Hbond>  (849) 
0.0000

>  <Gold.PLP.Chemscore.Internal.Correction>  (849) 
2.2981

>  <Gold.PLP.Chemscore.Metal>  (849) 
0.0000

>  <Gold.PLP.Fitness>  (849) 
52.6790

>  <Gold.PLP.PLP>  (849) 
-48.3400

>  <Gold.PLP.ligand.clash>  (849) 
0.9861

>  <Gold.PLP.ligand.torsion>  (849) 
1.1395

>  <Gold.PLP.part.buried>  (849) 
-6.6045

>  <Gold.PLP.part.hbond>  (849) 
-1.3987

>  <Gold.PLP.part.metal>  (849) 
0.0000

>  <Gold.PLP.part.nonpolar>  (849) 
-43.6683

>  <Gold.PLP.part.repulsive>  (849) 
0.7541

>  <Gold.Protein.RotatedAtoms>  (849) 


>  <Gold.Protein.RotatedTorsions>  (849) 


>  <Gold.Protein.RotatedWaterAtoms>  (849) 


>  <Gold.Version>  (849) 
5.3.0

>  <PLP.Chemscore.CHOScore>  (849) 


>  <PLP.Chemscore.Hbond>  (849) 


>  <PLP.Chemscore.Internal.Correction>  (849) 


>  <PLP.Chemscore.Metal>  (849) 


>  <PLP.Fitness>  (849) 


>  <PLP.PLP>  (849) 


>  <PLP.ligand.clash>  (849) 


>  <PLP.ligand.torsion>  (849) 


>  <PLP.part.buried>  (849) 


>  <PLP.part.hbond>  (849) 


>  <PLP.part.metal>  (849) 


>  <PLP.part.nonpolar>  (849) 


>  <PLP.part.repulsive>  (849) 


>  <Version>  (849) 


$$$$
3849|Compound_2159|Compounds_3D_F|sdf|633|dock10|1
     RDKit          3D

 28 30  0  0  0  0  0  0  0  0999 V2000
   -9.5306  -19.1585    8.5199 O   0  0  0  0  0  0  0  0  0  0  0  0
   -9.7895  -18.4059    9.6136 C   0  0  0  0  0  0  0  0  0  0  0  0
  -10.9289  -18.6631   10.4186 C   0  0  0  0  0  0  0  0  0  0  0  0
  -11.7827  -19.6448   10.1356 N   0  0  0  0  0  0  0  0  0  0  0  0
  -12.8242  -19.8436   10.9128 C   0  0  0  0  0  0  0  0  0  0  0  0
  -13.0427  -19.0368   12.0303 C   0  0  0  0  0  0  0  0  0  0  0  0
  -12.2123  -18.0608   12.3280 N   0  0  0  0  0  0  0  0  0  0  0  0
  -11.1479  -17.8409   11.5519 C   0  0  0  0  0  0  0  0  0  0  0  0
  -10.2741  -16.8610   11.8153 N   0  0  0  0  0  0  0  0  0  0  0  0
   -9.2311  -16.6666   11.0321 C   0  0  0  0  0  0  0  0  0  0  0  0
   -8.9848  -17.4166    9.9607 N   0  0  0  0  0  0  0  0  0  0  0  0
   -8.3506  -15.6409   11.3401 N   0  0  0  0  0  0  0  0  0  0  0  0
   -8.8020  -14.3758   11.4545 C   0  0  0  0  0  0  0  0  0  0  0  0
   -9.9817  -14.1346   11.2870 O   0  0  0  0  0  0  0  0  0  0  0  0
   -7.8623  -13.2833   11.7831 C   0  0  0  0  0  0  0  0  0  0  0  0
   -8.2733  -11.9520   11.6823 C   0  0  0  0  0  0  0  0  0  0  0  0
   -7.3908  -10.9371   11.9904 C   0  0  0  0  0  0  0  0  0  0  0  0
   -6.1028  -11.2356   12.3977 C   0  0  0  0  0  0  0  0  0  0  0  0
   -5.6899  -12.5520   12.4999 C   0  0  0  0  0  0  0  0  0  0  0  0
   -6.5640  -13.5768   12.2005 C   0  0  0  0  0  0  0  0  0  0  0  0
   -4.2853  -12.8674   12.9450 C   0  0  0  0  0  0  0  0  0  0  0  0
   -7.8313   -9.5004   11.8816 C   0  0  0  0  0  0  0  0  0  0  0  0
  -13.7913  -20.9541   10.5942 C   0  0  0  0  0  0  0  0  0  0  0  0
  -13.2402  -22.2026   11.0170 O   0  0  0  0  0  0  0  0  0  0  0  0
  -14.0442  -20.9926    9.0856 C   0  0  0  0  0  0  0  0  0  0  0  0
  -14.5002  -19.7121    8.6460 O   0  0  0  0  0  0  0  0  0  0  0  0
  -15.1081  -22.0475    8.7733 C   0  0  0  0  0  0  0  0  0  0  0  0
  -15.5894  -21.8592    7.4413 O   0  0  0  0  0  0  0  0  0  0  0  0
  1  2  1  0
  2  3  2  0
  2 11  1  0
  3  4  1  0
  3  8  1  0
  4  5  2  0
  5  6  1  0
  5 23  1  0
  6  7  2  0
  7  8  1  0
  8  9  2  0
  9 10  1  0
 10 11  2  0
 10 12  1  0
 12 13  1  0
 13 14  2  0
 13 15  1  0
 15 16  2  0
 15 20  1  0
 16 17  1  0
 17 18  2  0
 17 22  1  0
 18 19  1  0
 19 20  2  0
 19 21  1  0
 23 24  1  0
 23 25  1  0
 25 26  1  0
 25 27  1  0
 27 28  1  0
M  END
>  <Gold.Gold.Protein.RotatedWaterAtoms>  (850) 


>  <Gold.Id.Protein>  (850) 


>  <Gold.PLP.Chemscore.CHOScore>  (850) 
1.0000

>  <Gold.PLP.Chemscore.Hbond>  (850) 
3.6102

>  <Gold.PLP.Chemscore.Internal.Correction>  (850) 
0.4656

>  <Gold.PLP.Chemscore.Metal>  (850) 
0.0000

>  <Gold.PLP.Fitness>  (850) 
71.7565

>  <Gold.PLP.PLP>  (850) 
-59.8720

>  <Gold.PLP.ligand.clash>  (850) 
0.0000

>  <Gold.PLP.ligand.torsion>  (850) 
1.2058

>  <Gold.PLP.part.buried>  (850) 
-1.0212

>  <Gold.PLP.part.hbond>  (850) 
-5.2471

>  <Gold.PLP.part.metal>  (850) 
0.0000

>  <Gold.PLP.part.nonpolar>  (850) 
-54.4184

>  <Gold.PLP.part.repulsive>  (850) 
0.2667

>  <Gold.Protein.RotatedAtoms>  (850) 


>  <Gold.Protein.RotatedTorsions>  (850) 


>  <Gold.Protein.RotatedWaterAtoms>  (850) 


>  <Gold.Version>  (850) 
5.3.0

>  <PLP.Chemscore.CHOScore>  (850) 


>  <PLP.Chemscore.Hbond>  (850) 


>  <PLP.Chemscore.Internal.Correction>  (850) 


>  <PLP.Chemscore.Metal>  (850) 


>  <PLP.Fitness>  (850) 


>  <PLP.PLP>  (850) 


>  <PLP.ligand.clash>  (850) 


>  <PLP.ligand.torsion>  (850) 


>  <PLP.part.buried>  (850) 


>  <PLP.part.hbond>  (850) 


>  <PLP.part.metal>  (850) 


>  <PLP.part.nonpolar>  (850) 


>  <PLP.part.repulsive>  (850) 


>  <Version>  (850) 


$$$$
3850|Compound_2161|Compounds_3D_F|sdf|635|dock10|1
     RDKit          3D

 30 33  0  0  0  0  0  0  0  0999 V2000
   -8.7947  -19.8234    7.8368 O   0  0  0  0  0  0  0  0  0  0  0  0
   -9.2118  -19.3277    9.0267 C   0  0  0  0  0  0  0  0  0  0  0  0
   -8.9187  -18.0836    9.3812 N   0  0  0  0  0  0  0  0  0  0  0  0
   -9.3229  -17.5882   10.5437 C   0  0  0  0  0  0  0  0  0  0  0  0
  -10.0304  -18.2986   11.4063 N   0  0  0  0  0  0  0  0  0  0  0  0
  -10.3669  -19.5537   11.1316 C   0  0  0  0  0  0  0  0  0  0  0  0
   -9.9664  -20.1174    9.9080 C   0  0  0  0  0  0  0  0  0  0  0  0
  -10.4342  -21.3894    9.8819 N   0  0  0  0  0  0  0  0  0  0  0  0
  -11.0811  -21.6355   10.9840 C   0  0  0  0  0  0  0  0  0  0  0  0
  -11.0718  -20.5320   11.7865 N   0  0  0  0  0  0  0  0  0  0  0  0
  -11.6921  -20.4159   13.1075 C   0  0  0  0  0  0  0  0  0  0  0  0
  -11.2516  -21.4901   13.9668 O   0  0  0  0  0  0  0  0  0  0  0  0
  -12.2488  -21.5791   15.0077 C   0  0  0  0  0  0  0  0  0  0  0  0
  -12.1982  -22.9538   15.6765 C   0  0  0  0  0  0  0  0  0  0  0  0
  -10.8617  -23.2268   16.1038 O   0  0  0  0  0  0  0  0  0  0  0  0
  -13.5973  -21.3826   14.2795 C   0  0  0  0  0  0  0  0  0  0  0  0
  -14.4965  -20.6227   15.0900 O   0  0  0  0  0  0  0  0  0  0  0  0
  -13.2231  -20.5959   13.0011 C   0  0  0  0  0  0  0  0  0  0  0  0
  -13.8802  -19.3273   12.9827 O   0  0  0  0  0  0  0  0  0  0  0  0
   -8.9895  -16.2789   10.8673 N   0  0  0  0  0  0  0  0  0  0  0  0
   -7.7478  -15.9881   11.3050 C   0  0  0  0  0  0  0  0  0  0  0  0
   -6.9206  -16.8722   11.4170 O   0  0  0  0  0  0  0  0  0  0  0  0
   -7.3929  -14.5958   11.6491 C   0  0  0  0  0  0  0  0  0  0  0  0
   -8.3232  -13.5708   11.4718 C   0  0  0  0  0  0  0  0  0  0  0  0
   -7.9857  -12.2722   11.7945 C   0  0  0  0  0  0  0  0  0  0  0  0
   -6.7269  -11.9861   12.2938 C   0  0  0  0  0  0  0  0  0  0  0  0
   -5.7995  -12.9975   12.4721 C   0  0  0  0  0  0  0  0  0  0  0  0
   -6.1272  -14.3007   12.1584 C   0  0  0  0  0  0  0  0  0  0  0  0
   -4.4320  -12.6752   13.0151 C   0  0  0  0  0  0  0  0  0  0  0  0
   -8.9886  -11.1647   11.6037 C   0  0  0  0  0  0  0  0  0  0  0  0
  1  2  1  0
  2  3  2  0
  2  7  1  0
  3  4  1  0
  4  5  2  0
  4 20  1  0
  5  6  1  0
  6  7  2  0
  6 10  1  0
  7  8  1  0
  8  9  2  0
  9 10  1  0
 10 11  1  0
 11 12  1  0
 11 18  1  0
 12 13  1  0
 13 14  1  0
 13 16  1  0
 14 15  1  0
 16 17  1  0
 16 18  1  0
 18 19  1  0
 20 21  1  0
 21 22  2  0
 21 23  1  0
 23 24  2  0
 23 28  1  0
 24 25  1  0
 25 26  2  0
 25 30  1  0
 26 27  1  0
 27 28  2  0
 27 29  1  0
M  END
>  <Gold.Gold.Protein.RotatedWaterAtoms>  (851) 


>  <Gold.Id.Protein>  (851) 


>  <Gold.PLP.Chemscore.CHOScore>  (851) 
0.0000

>  <Gold.PLP.Chemscore.Hbond>  (851) 
2.6560

>  <Gold.PLP.Chemscore.Internal.Correction>  (851) 
0.4601

>  <Gold.PLP.Chemscore.Metal>  (851) 
0.0000

>  <Gold.PLP.Fitness>  (851) 
63.3108

>  <Gold.PLP.PLP>  (851) 
-56.5303

>  <Gold.PLP.ligand.clash>  (851) 
0.0000

>  <Gold.PLP.ligand.torsion>  (851) 
0.8238

>  <Gold.PLP.part.buried>  (851) 
-5.1809

>  <Gold.PLP.part.hbond>  (851) 
-5.6587

>  <Gold.PLP.part.metal>  (851) 
0.0000

>  <Gold.PLP.part.nonpolar>  (851) 
-46.0071

>  <Gold.PLP.part.repulsive>  (851) 
0.0101

>  <Gold.Protein.RotatedAtoms>  (851) 


>  <Gold.Protein.RotatedTorsions>  (851) 


>  <Gold.Protein.RotatedWaterAtoms>  (851) 


>  <Gold.Version>  (851) 
5.3.0

>  <PLP.Chemscore.CHOScore>  (851) 


>  <PLP.Chemscore.Hbond>  (851) 


>  <PLP.Chemscore.Internal.Correction>  (851) 


>  <PLP.Chemscore.Metal>  (851) 


>  <PLP.Fitness>  (851) 


>  <PLP.PLP>  (851) 


>  <PLP.ligand.clash>  (851) 


>  <PLP.ligand.torsion>  (851) 


>  <PLP.part.buried>  (851) 


>  <PLP.part.hbond>  (851) 


>  <PLP.part.metal>  (851) 


>  <PLP.part.nonpolar>  (851) 


>  <PLP.part.repulsive>  (851) 


>  <Version>  (851) 


$$$$
3851|Compound_2194|Compounds_3D_F|sdf|649|dock10|1
     RDKit          3D

 21 22  0  0  0  0  0  0  0  0999 V2000
   -9.1551  -16.6751   11.4462 N   0  0  0  0  0  0  0  0  0  0  0  0
   -9.0678  -15.4279   11.9502 C   0  0  0  0  0  0  0  0  0  0  0  0
  -10.0577  -14.8817   12.3929 O   0  0  0  0  0  0  0  0  0  0  0  0
   -7.7621  -14.7242   11.9637 C   0  0  0  0  0  0  0  0  0  0  0  0
   -7.6998  -13.4188   12.2125 N   0  0  0  0  0  0  0  0  0  0  0  0
   -6.5363  -12.7889   12.2248 C   0  0  0  0  0  0  0  0  0  0  0  0
   -6.5003  -11.0591   12.5588 S   0  0  0  0  0  0  0  0  0  0  0  0
   -7.9385  -10.5231   11.5995 C   0  0  0  0  0  0  0  0  0  0  0  0
   -5.3951  -13.4255   11.9935 N   0  0  0  0  0  0  0  0  0  0  0  0
   -5.3793  -14.7218   11.7403 C   0  0  0  0  0  0  0  0  0  0  0  0
   -6.5780  -15.4241   11.7221 C   0  0  0  0  0  0  0  0  0  0  0  0
   -6.6060  -17.2809   11.3642 Br  0  0  0  0  0  0  0  0  0  0  0  0
  -10.3755  -17.3320   11.4284 C   0  0  0  0  0  0  0  0  0  0  0  0
  -11.0960  -17.6581   12.4728 N   0  0  0  0  0  0  0  0  0  0  0  0
  -12.1669  -18.2551   12.0814 N   0  0  0  0  0  0  0  0  0  0  0  0
  -12.1712  -18.3316   10.7815 C   0  0  0  0  0  0  0  0  0  0  0  0
  -11.0430  -17.7465   10.3364 O   0  0  0  0  0  0  0  0  0  0  0  0
  -13.2456  -18.9568    9.9301 C   0  0  0  0  0  0  0  0  0  0  0  0
  -14.2209  -19.5279   10.7552 F   0  0  0  0  0  0  0  0  0  0  0  0
  -13.8324  -17.9758    9.1249 F   0  0  0  0  0  0  0  0  0  0  0  0
  -12.6811  -19.9492    9.1206 F   0  0  0  0  0  0  0  0  0  0  0  0
  1  2  1  0
  1 13  1  0
  2  3  2  0
  2  4  1  0
  4  5  2  0
  4 11  1  0
  5  6  1  0
  6  7  1  0
  6  9  2  0
  7  8  1  0
  9 10  1  0
 10 11  2  0
 11 12  1  0
 13 14  2  0
 13 17  1  0
 14 15  1  0
 15 16  2  0
 16 17  1  0
 16 18  1  0
 18 19  1  0
 18 20  1  0
 18 21  1  0
M  END
>  <Gold.Gold.Protein.RotatedWaterAtoms>  (852) 


>  <Gold.Id.Protein>  (852) 


>  <Gold.PLP.Chemscore.CHOScore>  (852) 
0.5886

>  <Gold.PLP.Chemscore.Hbond>  (852) 
1.6300

>  <Gold.PLP.Chemscore.Internal.Correction>  (852) 
0.0054

>  <Gold.PLP.Chemscore.Metal>  (852) 
0.0000

>  <Gold.PLP.Fitness>  (852) 
53.3485

>  <Gold.PLP.PLP>  (852) 
-48.6159

>  <Gold.PLP.ligand.clash>  (852) 
0.0000

>  <Gold.PLP.ligand.torsion>  (852) 
0.9644

>  <Gold.PLP.part.buried>  (852) 
-2.8933

>  <Gold.PLP.part.hbond>  (852) 
-5.5092

>  <Gold.PLP.part.metal>  (852) 
0.0000

>  <Gold.PLP.part.nonpolar>  (852) 
-42.9916

>  <Gold.PLP.part.repulsive>  (852) 
0.8139

>  <Gold.Protein.RotatedAtoms>  (852) 


>  <Gold.Protein.RotatedTorsions>  (852) 


>  <Gold.Protein.RotatedWaterAtoms>  (852) 


>  <Gold.Version>  (852) 
5.3.0

>  <PLP.Chemscore.CHOScore>  (852) 


>  <PLP.Chemscore.Hbond>  (852) 


>  <PLP.Chemscore.Internal.Correction>  (852) 


>  <PLP.Chemscore.Metal>  (852) 


>  <PLP.Fitness>  (852) 


>  <PLP.PLP>  (852) 


>  <PLP.ligand.clash>  (852) 


>  <PLP.ligand.torsion>  (852) 


>  <PLP.part.buried>  (852) 


>  <PLP.part.hbond>  (852) 


>  <PLP.part.metal>  (852) 


>  <PLP.part.nonpolar>  (852) 


>  <PLP.part.repulsive>  (852) 


>  <Version>  (852) 


$$$$
3852|Compound_2204|Compounds_3D_F|sdf|653|dock10|1
     RDKit          3D

 28 30  0  0  0  0  0  0  0  0999 V2000
  -10.1213  -21.6116   10.2773 O   0  0  0  0  0  0  0  0  0  0  0  0
  -10.3804  -20.2920   10.4220 C   0  0  0  0  0  0  0  0  0  0  0  0
  -11.6364  -19.7528   10.0421 C   0  0  0  0  0  0  0  0  0  0  0  0
  -12.6030  -20.5137    9.5325 N   0  0  0  0  0  0  0  0  0  0  0  0
  -13.7502  -19.9669    9.1959 C   0  0  0  0  0  0  0  0  0  0  0  0
  -13.9638  -18.5989    9.3669 C   0  0  0  0  0  0  0  0  0  0  0  0
  -13.0227  -17.8283    9.8688 N   0  0  0  0  0  0  0  0  0  0  0  0
  -11.8494  -18.3627   10.2173 C   0  0  0  0  0  0  0  0  0  0  0  0
  -10.8618  -17.6196   10.7326 N   0  0  0  0  0  0  0  0  0  0  0  0
   -9.7133  -18.1739   11.0685 C   0  0  0  0  0  0  0  0  0  0  0  0
   -9.4717  -19.4747   10.9251 N   0  0  0  0  0  0  0  0  0  0  0  0
   -8.7167  -17.3689   11.5985 N   0  0  0  0  0  0  0  0  0  0  0  0
   -8.4431  -16.1750   11.0359 C   0  0  0  0  0  0  0  0  0  0  0  0
   -9.0714  -15.8041   10.0624 O   0  0  0  0  0  0  0  0  0  0  0  0
   -7.3840  -15.3201   11.5993 C   0  0  0  0  0  0  0  0  0  0  0  0
   -6.0882  -15.8257   11.8030 C   0  0  0  0  0  0  0  0  0  0  0  0
   -5.7234  -17.4972   11.3819 S   0  0  0  0  0  0  0  0  0  0  0  0
   -4.3491  -17.2389   10.2320 C   0  0  0  0  0  0  0  0  0  0  0  0
   -5.1392  -15.0517   12.3094 N   0  0  0  0  0  0  0  0  0  0  0  0
   -5.3704  -13.7961   12.6379 C   0  0  0  0  0  0  0  0  0  0  0  0
   -6.6208  -13.2274   12.4662 C   0  0  0  0  0  0  0  0  0  0  0  0
   -7.6483  -13.9867   11.9358 C   0  0  0  0  0  0  0  0  0  0  0  0
  -14.8451  -20.8263    8.6193 C   0  0  0  0  0  0  0  0  0  0  0  0
  -15.9662  -20.8290    9.5059 O   0  0  0  0  0  0  0  0  0  0  0  0
  -14.3322  -22.2562    8.4417 C   0  0  0  0  0  0  0  0  0  0  0  0
  -13.4388  -22.3068    7.3272 O   0  0  0  0  0  0  0  0  0  0  0  0
  -15.5135  -23.1951    8.1925 C   0  0  0  0  0  0  0  0  0  0  0  0
  -16.2903  -22.7031    7.0978 O   0  0  0  0  0  0  0  0  0  0  0  0
  1  2  1  0
  2  3  2  0
  2 11  1  0
  3  4  1  0
  3  8  1  0
  4  5  2  0
  5  6  1  0
  5 23  1  0
  6  7  2  0
  7  8  1  0
  8  9  2  0
  9 10  1  0
 10 11  2  0
 10 12  1  0
 12 13  1  0
 13 14  2  0
 13 15  1  0
 15 16  2  0
 15 22  1  0
 16 17  1  0
 16 19  1  0
 17 18  1  0
 19 20  2  0
 20 21  1  0
 21 22  2  0
 23 24  1  0
 23 25  1  0
 25 26  1  0
 25 27  1  0
 27 28  1  0
M  END
>  <Gold.Gold.Protein.RotatedWaterAtoms>  (853) 


>  <Gold.Id.Protein>  (853) 


>  <Gold.PLP.Chemscore.CHOScore>  (853) 
0.8607

>  <Gold.PLP.Chemscore.Hbond>  (853) 
4.0000

>  <Gold.PLP.Chemscore.Internal.Correction>  (853) 
1.6812

>  <Gold.PLP.Chemscore.Metal>  (853) 
0.0000

>  <Gold.PLP.Fitness>  (853) 
67.2195

>  <Gold.PLP.PLP>  (853) 
-54.3394

>  <Gold.PLP.ligand.clash>  (853) 
0.2246

>  <Gold.PLP.ligand.torsion>  (853) 
1.5794

>  <Gold.PLP.part.buried>  (853) 
-4.1493

>  <Gold.PLP.part.hbond>  (853) 
-7.0000

>  <Gold.PLP.part.metal>  (853) 
0.0000

>  <Gold.PLP.part.nonpolar>  (853) 
-44.1660

>  <Gold.PLP.part.repulsive>  (853) 
0.3535

>  <Gold.Protein.RotatedAtoms>  (853) 


>  <Gold.Protein.RotatedTorsions>  (853) 


>  <Gold.Protein.RotatedWaterAtoms>  (853) 


>  <Gold.Version>  (853) 
5.3.0

>  <PLP.Chemscore.CHOScore>  (853) 


>  <PLP.Chemscore.Hbond>  (853) 


>  <PLP.Chemscore.Internal.Correction>  (853) 


>  <PLP.Chemscore.Metal>  (853) 


>  <PLP.Fitness>  (853) 


>  <PLP.PLP>  (853) 


>  <PLP.ligand.clash>  (853) 


>  <PLP.ligand.torsion>  (853) 


>  <PLP.part.buried>  (853) 


>  <PLP.part.hbond>  (853) 


>  <PLP.part.metal>  (853) 


>  <PLP.part.nonpolar>  (853) 


>  <PLP.part.repulsive>  (853) 


>  <Version>  (853) 


$$$$
3853|Compound_2208|Compounds_3D_F|sdf|655|dock10|1
     RDKit          3D

 38 42  0  0  0  0  0  0  0  0999 V2000
   -8.6925  -14.9858   12.7947 O   0  0  0  0  0  0  0  0  0  0  0  0
   -8.4364  -16.0214   11.9594 C   0  0  0  0  0  0  0  0  0  0  0  0
   -9.4107  -17.0007   11.7141 C   0  0  0  0  0  0  0  0  0  0  0  0
  -10.6826  -17.2068   12.1388 N   0  0  0  0  0  0  0  0  0  0  0  0
  -11.1508  -18.2915   11.5937 C   0  0  0  0  0  0  0  0  0  0  0  0
  -10.2074  -18.8507   10.7829 N   0  0  0  0  0  0  0  0  0  0  0  0
   -9.0916  -18.0536   10.8383 C   0  0  0  0  0  0  0  0  0  0  0  0
   -7.8884  -18.0857   10.2780 N   0  0  0  0  0  0  0  0  0  0  0  0
   -7.0001  -17.1416   10.5376 C   0  0  0  0  0  0  0  0  0  0  0  0
   -7.2617  -16.1282   11.3537 N   0  0  0  0  0  0  0  0  0  0  0  0
   -5.7514  -17.2093    9.9326 N   0  0  0  0  0  0  0  0  0  0  0  0
   -5.4923  -16.4702    8.8364 C   0  0  0  0  0  0  0  0  0  0  0  0
   -6.3508  -15.7447    8.3761 O   0  0  0  0  0  0  0  0  0  0  0  0
   -4.1630  -16.5431    8.1930 C   0  0  0  0  0  0  0  0  0  0  0  0
   -3.8749  -15.7421    7.0873 C   0  0  0  0  0  0  0  0  0  0  0  0
   -2.6317  -15.8149    6.4922 C   0  0  0  0  0  0  0  0  0  0  0  0
   -2.1958  -14.6134    4.8321 I   0  0  0  0  0  0  0  0  0  0  0  0
   -1.6721  -16.6788    6.9898 C   0  0  0  0  0  0  0  0  0  0  0  0
   -1.9525  -17.4758    8.0858 C   0  0  0  0  0  0  0  0  0  0  0  0
   -3.1890  -17.4094    8.6929 C   0  0  0  0  0  0  0  0  0  0  0  0
   -0.3174  -16.7530    6.3352 C   0  0  0  0  0  0  0  0  0  0  0  0
  -10.3577  -20.0767    9.9963 C   0  0  0  0  0  0  0  0  0  0  0  0
  -11.5418  -19.9909    9.1745 O   0  0  0  0  0  0  0  0  0  0  0  0
  -12.3627  -21.1115    9.4529 C   0  0  0  0  0  0  0  0  0  0  0  0
  -13.8563  -20.9402    9.2728 C   0  0  0  0  0  0  0  0  0  0  0  0
  -14.4542  -22.2446    9.4733 O   0  0  0  0  0  0  0  0  0  0  0  0
  -14.0664  -23.1279   10.7797 P   0  0  0  0  0  0  0  0  0  0  0  0
  -14.2461  -24.5676   10.4878 O   0  0  0  0  0  0  0  0  0  0  0  0
  -14.9910  -22.6998   12.0256 O   0  0  0  0  0  0  0  0  0  0  0  0
  -12.4993  -22.8176   11.1122 O   0  0  0  0  0  0  0  0  0  0  0  0
  -12.0712  -21.4570   10.9378 C   0  0  0  0  0  0  0  0  0  0  0  0
  -10.5367  -21.2934   10.9444 C   0  0  0  0  0  0  0  0  0  0  0  0
  -10.0489  -21.0035   12.2804 O   0  0  0  0  0  0  0  0  0  0  0  0
  -10.2631  -21.9342   13.2236 C   0  0  0  0  0  0  0  0  0  0  0  0
  -10.3178  -23.1021   12.9181 O   0  0  0  0  0  0  0  0  0  0  0  0
  -10.4340  -21.5237   14.6632 C   0  0  0  0  0  0  0  0  0  0  0  0
  -11.7244  -22.1308   15.2179 C   0  0  0  0  0  0  0  0  0  0  0  0
  -12.8948  -21.1880   14.9337 C   0  0  0  0  0  0  0  0  0  0  0  0
  1  2  1  0
  2  3  2  0
  2 10  1  0
  3  4  1  0
  3  7  1  0
  4  5  2  0
  5  6  1  0
  6  7  1  0
  6 22  1  0
  7  8  2  0
  8  9  1  0
  9 10  2  0
  9 11  1  0
 11 12  1  0
 12 13  2  0
 12 14  1  0
 14 15  2  0
 14 20  1  0
 15 16  1  0
 16 17  1  0
 16 18  2  0
 18 19  1  0
 18 21  1  0
 19 20  2  0
 22 23  1  0
 22 32  1  0
 23 24  1  0
 24 25  1  0
 24 31  1  0
 25 26  1  0
 26 27  1  0
 27 28  2  0
 27 29  1  0
 27 30  1  0
 30 31  1  0
 31 32  1  0
 32 33  1  0
 33 34  1  0
 34 35  2  0
 34 36  1  0
 36 37  1  0
 37 38  1  0
M  END
>  <Gold.Gold.Protein.RotatedWaterAtoms>  (854) 


>  <Gold.Id.Protein>  (854) 


>  <Gold.PLP.Chemscore.CHOScore>  (854) 
0.0000

>  <Gold.PLP.Chemscore.Hbond>  (854) 
3.1078

>  <Gold.PLP.Chemscore.Internal.Correction>  (854) 
0.5640

>  <Gold.PLP.Chemscore.Metal>  (854) 
0.0000

>  <Gold.PLP.Fitness>  (854) 
57.6701

>  <Gold.PLP.PLP>  (854) 
-50.5992

>  <Gold.PLP.ligand.clash>  (854) 
0.0000

>  <Gold.PLP.ligand.torsion>  (854) 
1.4082

>  <Gold.PLP.part.buried>  (854) 
-0.7539

>  <Gold.PLP.part.hbond>  (854) 
-5.0882

>  <Gold.PLP.part.metal>  (854) 
0.0000

>  <Gold.PLP.part.nonpolar>  (854) 
-45.4214

>  <Gold.PLP.part.repulsive>  (854) 
0.2759

>  <Gold.Protein.RotatedAtoms>  (854) 


>  <Gold.Protein.RotatedTorsions>  (854) 


>  <Gold.Protein.RotatedWaterAtoms>  (854) 


>  <Gold.Version>  (854) 
5.3.0

>  <PLP.Chemscore.CHOScore>  (854) 


>  <PLP.Chemscore.Hbond>  (854) 


>  <PLP.Chemscore.Internal.Correction>  (854) 


>  <PLP.Chemscore.Metal>  (854) 


>  <PLP.Fitness>  (854) 


>  <PLP.PLP>  (854) 


>  <PLP.ligand.clash>  (854) 


>  <PLP.ligand.torsion>  (854) 


>  <PLP.part.buried>  (854) 


>  <PLP.part.hbond>  (854) 


>  <PLP.part.metal>  (854) 


>  <PLP.part.nonpolar>  (854) 


>  <PLP.part.repulsive>  (854) 


>  <Version>  (854) 


$$$$
3854|Compound_2218|Compounds_3D_F|sdf|657|dock10|1
     RDKit          3D

 28 30  0  0  0  0  0  0  0  0999 V2000
   -9.3276  -20.6519    9.8719 O   0  0  0  0  0  0  0  0  0  0  0  0
   -9.8560  -19.5779   10.5018 C   0  0  0  0  0  0  0  0  0  0  0  0
  -11.2485  -19.5010   10.7613 C   0  0  0  0  0  0  0  0  0  0  0  0
  -12.0857  -20.4714   10.4010 N   0  0  0  0  0  0  0  0  0  0  0  0
  -13.3684  -20.3536   10.6643 C   0  0  0  0  0  0  0  0  0  0  0  0
  -13.8599  -19.2229   11.3161 C   0  0  0  0  0  0  0  0  0  0  0  0
  -13.0506  -18.2520   11.6812 N   0  0  0  0  0  0  0  0  0  0  0  0
  -11.7440  -18.3507   11.4245 C   0  0  0  0  0  0  0  0  0  0  0  0
  -10.8814  -17.3894   11.7770 N   0  0  0  0  0  0  0  0  0  0  0  0
   -9.5958  -17.5133   11.5105 C   0  0  0  0  0  0  0  0  0  0  0  0
   -9.0871  -18.5772   10.8946 N   0  0  0  0  0  0  0  0  0  0  0  0
   -8.7369  -16.4939   11.8924 N   0  0  0  0  0  0  0  0  0  0  0  0
   -8.6381  -15.3785   11.1423 C   0  0  0  0  0  0  0  0  0  0  0  0
   -9.3032  -15.2666   10.1302 O   0  0  0  0  0  0  0  0  0  0  0  0
   -7.7229  -14.2935   11.5488 C   0  0  0  0  0  0  0  0  0  0  0  0
   -7.9542  -12.9989   11.4617 N   0  0  0  0  0  0  0  0  0  0  0  0
   -6.9435  -12.3406   11.9039 N   0  0  0  0  0  0  0  0  0  0  0  0
   -5.9762  -13.1888   12.3143 C   0  0  0  0  0  0  0  0  0  0  0  0
   -6.4337  -14.4466   12.1113 C   0  0  0  0  0  0  0  0  0  0  0  0
   -4.6395  -12.8058   12.8954 C   0  0  0  0  0  0  0  0  0  0  0  0
   -6.8541  -10.8792   11.9565 C   0  0  0  0  0  0  0  0  0  0  0  0
   -8.2115  -10.2709   11.5973 C   0  0  0  0  0  0  0  0  0  0  0  0
  -14.3167  -21.4517   10.2564 C   0  0  0  0  0  0  0  0  0  0  0  0
  -13.8965  -22.6853   10.8409 O   0  0  0  0  0  0  0  0  0  0  0  0
  -14.3202  -21.5839    8.7327 C   0  0  0  0  0  0  0  0  0  0  0  0
  -14.5165  -20.2969    8.1432 O   0  0  0  0  0  0  0  0  0  0  0  0
  -15.4519  -22.5190    8.3039 C   0  0  0  0  0  0  0  0  0  0  0  0
  -16.0446  -22.0301    7.0989 O   0  0  0  0  0  0  0  0  0  0  0  0
  1  2  1  0
  2  3  2  0
  2 11  1  0
  3  4  1  0
  3  8  1  0
  4  5  2  0
  5  6  1  0
  5 23  1  0
  6  7  2  0
  7  8  1  0
  8  9  2  0
  9 10  1  0
 10 11  2  0
 10 12  1  0
 12 13  1  0
 13 14  2  0
 13 15  1  0
 15 16  2  0
 15 19  1  0
 16 17  1  0
 17 18  1  0
 17 21  1  0
 18 19  2  0
 18 20  1  0
 21 22  1  0
 23 24  1  0
 23 25  1  0
 25 26  1  0
 25 27  1  0
 27 28  1  0
M  END
>  <Gold.Gold.Protein.RotatedWaterAtoms>  (855) 


>  <Gold.Id.Protein>  (855) 


>  <Gold.PLP.Chemscore.CHOScore>  (855) 
1.0000

>  <Gold.PLP.Chemscore.Hbond>  (855) 
2.3598

>  <Gold.PLP.Chemscore.Internal.Correction>  (855) 
0.6033

>  <Gold.PLP.Chemscore.Metal>  (855) 
0.0000

>  <Gold.PLP.Fitness>  (855) 
65.8600

>  <Gold.PLP.PLP>  (855) 
-59.2363

>  <Gold.PLP.ligand.clash>  (855) 
0.0000

>  <Gold.PLP.ligand.torsion>  (855) 
2.0296

>  <Gold.PLP.part.buried>  (855) 
-3.2036

>  <Gold.PLP.part.hbond>  (855) 
-6.2858

>  <Gold.PLP.part.metal>  (855) 
0.0000

>  <Gold.PLP.part.nonpolar>  (855) 
-49.7784

>  <Gold.PLP.part.repulsive>  (855) 
0.9995

>  <Gold.Protein.RotatedAtoms>  (855) 


>  <Gold.Protein.RotatedTorsions>  (855) 


>  <Gold.Protein.RotatedWaterAtoms>  (855) 


>  <Gold.Version>  (855) 
5.3.0

>  <PLP.Chemscore.CHOScore>  (855) 


>  <PLP.Chemscore.Hbond>  (855) 


>  <PLP.Chemscore.Internal.Correction>  (855) 


>  <PLP.Chemscore.Metal>  (855) 


>  <PLP.Fitness>  (855) 


>  <PLP.PLP>  (855) 


>  <PLP.ligand.clash>  (855) 


>  <PLP.ligand.torsion>  (855) 


>  <PLP.part.buried>  (855) 


>  <PLP.part.hbond>  (855) 


>  <PLP.part.metal>  (855) 


>  <PLP.part.nonpolar>  (855) 


>  <PLP.part.repulsive>  (855) 


>  <Version>  (855) 


$$$$
3855|Compound_2222|Compounds_3D_F|sdf|659|dock10|1
     RDKit          3D

 30 33  0  0  0  0  0  0  0  0999 V2000
   -4.9372  -20.9336    9.7627 O   0  0  0  0  0  0  0  0  0  0  0  0
   -5.9509  -20.0347    9.7709 C   0  0  0  0  0  0  0  0  0  0  0  0
   -7.1947  -20.4157    9.5119 N   0  0  0  0  0  0  0  0  0  0  0  0
   -8.1947  -19.5438    9.5182 C   0  0  0  0  0  0  0  0  0  0  0  0
   -8.0109  -18.2599    9.7783 N   0  0  0  0  0  0  0  0  0  0  0  0
   -6.7964  -17.7936   10.0476 C   0  0  0  0  0  0  0  0  0  0  0  0
   -5.7083  -18.6824   10.0579 C   0  0  0  0  0  0  0  0  0  0  0  0
   -4.6026  -17.9571   10.3557 N   0  0  0  0  0  0  0  0  0  0  0  0
   -4.9356  -16.7101   10.5252 C   0  0  0  0  0  0  0  0  0  0  0  0
   -6.2795  -16.5589   10.3497 N   0  0  0  0  0  0  0  0  0  0  0  0
   -7.0324  -15.3064   10.4555 C   0  0  0  0  0  0  0  0  0  0  0  0
   -6.1913  -14.2582   10.9843 O   0  0  0  0  0  0  0  0  0  0  0  0
   -7.1026  -13.2655   11.5040 C   0  0  0  0  0  0  0  0  0  0  0  0
   -6.3905  -12.3702   12.5210 C   0  0  0  0  0  0  0  0  0  0  0  0
   -5.3489  -13.1102   13.1601 O   0  0  0  0  0  0  0  0  0  0  0  0
   -8.2226  -14.0777   12.1896 C   0  0  0  0  0  0  0  0  0  0  0  0
   -9.4914  -13.4518   11.9876 O   0  0  0  0  0  0  0  0  0  0  0  0
   -8.1772  -15.4526   11.4815 C   0  0  0  0  0  0  0  0  0  0  0  0
   -9.4163  -15.7170   10.8210 O   0  0  0  0  0  0  0  0  0  0  0  0
   -9.4791  -19.9948    9.2418 N   0  0  0  0  0  0  0  0  0  0  0  0
  -10.5425  -19.3926    9.8107 C   0  0  0  0  0  0  0  0  0  0  0  0
  -10.3769  -18.4532   10.5640 O   0  0  0  0  0  0  0  0  0  0  0  0
  -11.9076  -19.8719    9.5168 C   0  0  0  0  0  0  0  0  0  0  0  0
  -12.2509  -20.7374    8.5837 N   0  0  0  0  0  0  0  0  0  0  0  0
  -13.5216  -20.9286    8.6058 N   0  0  0  0  0  0  0  0  0  0  0  0
  -14.0893  -20.1817    9.5771 C   0  0  0  0  0  0  0  0  0  0  0  0
  -13.0954  -19.4949   10.1875 C   0  0  0  0  0  0  0  0  0  0  0  0
  -15.5556  -20.1267    9.9200 C   0  0  0  0  0  0  0  0  0  0  0  0
  -14.2491  -21.8285    7.7074 C   0  0  0  0  0  0  0  0  0  0  0  0
  -13.6003  -23.2131    7.7361 C   0  0  0  0  0  0  0  0  0  0  0  0
  1  2  1  0
  2  3  2  0
  2  7  1  0
  3  4  1  0
  4  5  2  0
  4 20  1  0
  5  6  1  0
  6  7  2  0
  6 10  1  0
  7  8  1  0
  8  9  2  0
  9 10  1  0
 10 11  1  0
 11 12  1  0
 11 18  1  0
 12 13  1  0
 13 14  1  0
 13 16  1  0
 14 15  1  0
 16 17  1  0
 16 18  1  0
 18 19  1  0
 20 21  1  0
 21 22  2  0
 21 23  1  0
 23 24  2  0
 23 27  1  0
 24 25  1  0
 25 26  1  0
 25 29  1  0
 26 27  2  0
 26 28  1  0
 29 30  1  0
M  END
>  <Gold.Gold.Protein.RotatedWaterAtoms>  (856) 


>  <Gold.Id.Protein>  (856) 


>  <Gold.PLP.Chemscore.CHOScore>  (856) 
1.0000

>  <Gold.PLP.Chemscore.Hbond>  (856) 
1.8125

>  <Gold.PLP.Chemscore.Internal.Correction>  (856) 
0.4695

>  <Gold.PLP.Chemscore.Metal>  (856) 
0.0000

>  <Gold.PLP.Fitness>  (856) 
56.7510

>  <Gold.PLP.PLP>  (856) 
-49.3539

>  <Gold.PLP.ligand.clash>  (856) 
0.0000

>  <Gold.PLP.ligand.torsion>  (856) 
0.7549

>  <Gold.PLP.part.buried>  (856) 
-8.8890

>  <Gold.PLP.part.hbond>  (856) 
-3.5775

>  <Gold.PLP.part.metal>  (856) 
0.0000

>  <Gold.PLP.part.nonpolar>  (856) 
-37.5847

>  <Gold.PLP.part.repulsive>  (856) 
0.2809

>  <Gold.Protein.RotatedAtoms>  (856) 


>  <Gold.Protein.RotatedTorsions>  (856) 


>  <Gold.Protein.RotatedWaterAtoms>  (856) 


>  <Gold.Version>  (856) 
5.3.0

>  <PLP.Chemscore.CHOScore>  (856) 


>  <PLP.Chemscore.Hbond>  (856) 


>  <PLP.Chemscore.Internal.Correction>  (856) 


>  <PLP.Chemscore.Metal>  (856) 


>  <PLP.Fitness>  (856) 


>  <PLP.PLP>  (856) 


>  <PLP.ligand.clash>  (856) 


>  <PLP.ligand.torsion>  (856) 


>  <PLP.part.buried>  (856) 


>  <PLP.part.hbond>  (856) 


>  <PLP.part.metal>  (856) 


>  <PLP.part.nonpolar>  (856) 


>  <PLP.part.repulsive>  (856) 


>  <Version>  (856) 


$$$$
3856|Compound_2223|Compounds_3D_F|sdf|660|dock10|1
     RDKit          3D

 16 17  0  0  0  0  0  0  0  0999 V2000
   -8.3071  -16.4427   11.5991 N   0  0  0  0  0  0  0  0  0  0  0  0
   -8.6025  -15.1680   11.2753 C   0  0  0  0  0  0  0  0  0  0  0  0
   -9.6347  -14.9146   10.6862 O   0  0  0  0  0  0  0  0  0  0  0  0
   -7.6719  -14.0806   11.6368 C   0  0  0  0  0  0  0  0  0  0  0  0
   -7.9224  -12.7865   11.5967 N   0  0  0  0  0  0  0  0  0  0  0  0
   -6.8895  -12.1249   11.9792 N   0  0  0  0  0  0  0  0  0  0  0  0
   -5.8855  -12.9705   12.2971 C   0  0  0  0  0  0  0  0  0  0  0  0
   -6.3419  -14.2284   12.0989 C   0  0  0  0  0  0  0  0  0  0  0  0
   -4.5133  -12.5832   12.7870 C   0  0  0  0  0  0  0  0  0  0  0  0
   -6.8126  -10.6644   12.0587 C   0  0  0  0  0  0  0  0  0  0  0  0
   -8.1414  -10.0576   11.6028 C   0  0  0  0  0  0  0  0  0  0  0  0
   -9.1789  -17.4658   11.2552 C   0  0  0  0  0  0  0  0  0  0  0  0
   -8.9301  -18.7545   11.3081 N   0  0  0  0  0  0  0  0  0  0  0  0
   -9.9527  -19.4274   10.9201 N   0  0  0  0  0  0  0  0  0  0  0  0
  -10.9145  -18.6327   10.5959 N   0  0  0  0  0  0  0  0  0  0  0  0
  -10.4472  -17.3236   10.8064 N   0  0  0  0  0  0  0  0  0  0  0  0
  1  2  1  0
  1 12  1  0
  2  3  2  0
  2  4  1  0
  4  5  2  0
  4  8  1  0
  5  6  1  0
  6  7  1  0
  6 10  1  0
  7  8  2  0
  7  9  1  0
 10 11  1  0
 12 13  2  0
 12 16  1  0
 13 14  1  0
 14 15  2  0
 15 16  1  0
M  END
>  <Gold.Gold.Protein.RotatedWaterAtoms>  (857) 


>  <Gold.Id.Protein>  (857) 


>  <Gold.PLP.Chemscore.CHOScore>  (857) 
0.0000

>  <Gold.PLP.Chemscore.Hbond>  (857) 
1.0320

>  <Gold.PLP.Chemscore.Internal.Correction>  (857) 
0.0005

>  <Gold.PLP.Chemscore.Metal>  (857) 
0.0000

>  <Gold.PLP.Fitness>  (857) 
42.0524

>  <Gold.PLP.PLP>  (857) 
-39.1585

>  <Gold.PLP.ligand.clash>  (857) 
0.0000

>  <Gold.PLP.ligand.torsion>  (857) 
0.1013

>  <Gold.PLP.part.buried>  (857) 
-3.8409

>  <Gold.PLP.part.hbond>  (857) 
-0.5265

>  <Gold.PLP.part.metal>  (857) 
0.0000

>  <Gold.PLP.part.nonpolar>  (857) 
-35.5773

>  <Gold.PLP.part.repulsive>  (857) 
0.3183

>  <Gold.Protein.RotatedAtoms>  (857) 


>  <Gold.Protein.RotatedTorsions>  (857) 


>  <Gold.Protein.RotatedWaterAtoms>  (857) 


>  <Gold.Version>  (857) 
5.3.0

>  <PLP.Chemscore.CHOScore>  (857) 


>  <PLP.Chemscore.Hbond>  (857) 


>  <PLP.Chemscore.Internal.Correction>  (857) 


>  <PLP.Chemscore.Metal>  (857) 


>  <PLP.Fitness>  (857) 


>  <PLP.PLP>  (857) 


>  <PLP.ligand.clash>  (857) 


>  <PLP.ligand.torsion>  (857) 


>  <PLP.part.buried>  (857) 


>  <PLP.part.hbond>  (857) 


>  <PLP.part.metal>  (857) 


>  <PLP.part.nonpolar>  (857) 


>  <PLP.part.repulsive>  (857) 


>  <Version>  (857) 


$$$$
