28|Compound_19|Compounds_3D_F|sdf|6|dock1|1
     RDKit          3D

 12 11  0  0  0  0  0  0  0  0999 V2000
   -9.1417  -15.0341    9.8041 O   0  0  0  0  0  0  0  0  0  0  0  0
   -8.5084  -14.8727   10.9756 C   0  0  0  0  0  0  0  0  0  0  0  0
   -8.0445  -13.7958   11.2695 O   0  0  0  0  0  0  0  0  0  0  0  0
   -8.3742  -16.0346   11.9263 C   0  0  0  0  0  0  0  0  0  0  0  0
   -8.8533  -17.2569   11.2759 N   0  0  0  0  0  0  0  0  0  0  0  0
  -10.0709  -17.7487   11.5775 C   0  0  0  0  0  0  0  0  0  0  0  0
  -10.7707  -17.1786   12.3879 O   0  0  0  0  0  0  0  0  0  0  0  0
  -10.5635  -19.0057   10.9081 C   0  0  0  0  0  0  0  0  0  0  0  0
  -11.5614  -18.6597    9.8926 N   0  0  0  0  0  0  0  0  0  0  0  0
  -12.8336  -19.0825   10.0265 C   0  0  0  0  0  0  0  0  0  0  0  0
  -13.1534  -19.7494   10.9873 O   0  0  0  0  0  0  0  0  0  0  0  0
  -13.9028  -18.7121    8.9379 B   0  0  0  0  0  0  0  0  0  0  0  0
  1  2  1  0
  2  3  2  0
  2  4  1  0
  4  5  1  0
  5  6  1  0
  6  7  2  0
  6  8  1  0
  8  9  1  0
  9 10  1  0
 10 11  2  0
 10 12  1  0
M  END
>  <Gold.Gold.Protein.RotatedWaterAtoms>  (1) 


>  <Gold.Id.Protein>  (1) 


>  <Gold.PLP.Chemscore.CHOScore>  (1) 
0.0000

>  <Gold.PLP.Chemscore.Hbond>  (1) 
2.9760

>  <Gold.PLP.Chemscore.Internal.Correction>  (1) 
0.0064

>  <Gold.PLP.Chemscore.Metal>  (1) 
0.0000

>  <Gold.PLP.Fitness>  (1) 
32.3738

>  <Gold.PLP.PLP>  (1) 
-24.1831

>  <Gold.PLP.ligand.clash>  (1) 
0.0000

>  <Gold.PLP.ligand.torsion>  (1) 
0.3718

>  <Gold.PLP.part.buried>  (1) 
-4.6751

>  <Gold.PLP.part.hbond>  (1) 
-4.0000

>  <Gold.PLP.part.metal>  (1) 
0.0000

>  <Gold.PLP.part.nonpolar>  (1) 
-16.0251

>  <Gold.PLP.part.repulsive>  (1) 
0.3648

>  <Gold.Protein.RotatedAtoms>  (1) 


>  <Gold.Protein.RotatedTorsions>  (1) 


>  <Gold.Protein.RotatedWaterAtoms>  (1) 


>  <Gold.Version>  (1) 
5.3.0

>  <PLP.Chemscore.CHOScore>  (1) 


>  <PLP.Chemscore.Hbond>  (1) 


>  <PLP.Chemscore.Internal.Correction>  (1) 


>  <PLP.Chemscore.Metal>  (1) 


>  <PLP.Fitness>  (1) 


>  <PLP.PLP>  (1) 


>  <PLP.ligand.clash>  (1) 


>  <PLP.ligand.torsion>  (1) 


>  <PLP.part.buried>  (1) 


>  <PLP.part.hbond>  (1) 


>  <PLP.part.metal>  (1) 


>  <PLP.part.nonpolar>  (1) 


>  <PLP.part.repulsive>  (1) 


>  <Version>  (1) 


$$$$
94|664022_40|Aromatic_carboxylic_acids_F|sdf|24|dock1|1
     RDKit          3D

 12 12  0  0  0  0  0  0  0  0999 V2000
   -8.2596  -17.1212   11.4595 C   0  0  0  0  0  0  0  0  0  0  0  0
   -7.6366  -15.8367   11.6688 N   0  0  0  0  0  0  0  0  0  0  0  0
   -8.3409  -14.6553   11.5719 C   0  0  0  0  0  0  0  0  0  0  0  0
   -9.5296  -14.5547   11.2978 O   0  0  0  0  0  0  0  0  0  0  0  0
   -7.5420  -13.4431   11.8503 C   0  0  0  0  0  0  0  0  0  0  0  0
   -8.1627  -12.1983   11.6738 C   0  0  0  0  0  0  0  0  0  0  0  0
   -7.4390  -11.0301   11.9055 C   0  0  0  0  0  0  0  0  0  0  0  0
   -6.1069  -11.0910   12.3103 C   0  0  0  0  0  0  0  0  0  0  0  0
   -5.4897  -12.3324   12.4853 C   0  0  0  0  0  0  0  0  0  0  0  0
   -6.2035  -13.5136   12.2549 C   0  0  0  0  0  0  0  0  0  0  0  0
   -5.3062  -15.1564   12.5638 Br  0  0  0  0  0  0  0  0  0  0  0  0
   -8.1960   -9.5005   11.6887 Cl  0  0  0  0  0  0  0  0  0  0  0  0
  1  2  1  0
  2  3  1  0
  3  4  2  0
  3  5  1  0
  5  6  2  0
  5 10  1  0
  6  7  1  0
  7  8  2  0
  7 12  1  0
  8  9  1  0
  9 10  2  0
 10 11  1  0
M  END
>  <Gold.Gold.Protein.RotatedWaterAtoms>  (2) 


>  <Gold.Id.Protein>  (2) 


>  <Gold.PLP.Chemscore.CHOScore>  (2) 
0.0000

>  <Gold.PLP.Chemscore.Hbond>  (2) 
0.4160

>  <Gold.PLP.Chemscore.Internal.Correction>  (2) 
0.0004

>  <Gold.PLP.Chemscore.Metal>  (2) 
0.0000

>  <Gold.PLP.Fitness>  (2) 
48.9046

>  <Gold.PLP.PLP>  (2) 
-47.6744

>  <Gold.PLP.ligand.clash>  (2) 
0.0000

>  <Gold.PLP.ligand.torsion>  (2) 
0.0091

>  <Gold.PLP.part.buried>  (2) 
-7.3578

>  <Gold.PLP.part.hbond>  (2) 
-0.5127

>  <Gold.PLP.part.metal>  (2) 
0.0000

>  <Gold.PLP.part.nonpolar>  (2) 
-40.3098

>  <Gold.PLP.part.repulsive>  (2) 
0.1684

>  <Gold.Protein.RotatedAtoms>  (2) 


>  <Gold.Protein.RotatedTorsions>  (2) 


>  <Gold.Protein.RotatedWaterAtoms>  (2) 


>  <Gold.Version>  (2) 
5.3.0

>  <PLP.Chemscore.CHOScore>  (2) 


>  <PLP.Chemscore.Hbond>  (2) 


>  <PLP.Chemscore.Internal.Correction>  (2) 


>  <PLP.Chemscore.Metal>  (2) 


>  <PLP.Fitness>  (2) 


>  <PLP.PLP>  (2) 


>  <PLP.ligand.clash>  (2) 


>  <PLP.ligand.torsion>  (2) 


>  <PLP.part.buried>  (2) 


>  <PLP.part.hbond>  (2) 


>  <PLP.part.metal>  (2) 


>  <PLP.part.nonpolar>  (2) 


>  <PLP.part.repulsive>  (2) 


>  <RMSD>  (2) 
0.30972197429

>  <Torsion>  (2) 
172.929186758

>  <TorsionO>  (2) 
24.4968065243

>  <TorsionR>  (2) 
162.574006718

>  <Version>  (2) 


>  <product>  (2) 
28|Compound_19|Compounds_3D_F|sdf|6|dock1|1

>  <rmsd>  (2) 
-1

$$$$
110|565385_49|Aromatic_carboxylic_acids_F|sdf|29|dock1|1
     RDKit          3D

 13 13  0  0  0  0  0  0  0  0999 V2000
  -10.1118  -17.9021   11.6320 C   0  0  0  0  0  0  0  0  0  0  0  0
   -9.7537  -16.5043   11.6546 N   0  0  0  0  0  0  0  0  0  0  0  0
   -8.4330  -16.1187   11.7930 C   0  0  0  0  0  0  0  0  0  0  0  0
   -7.5159  -16.9298   11.9008 O   0  0  0  0  0  0  0  0  0  0  0  0
   -8.1234  -14.6552   11.8105 C   0  0  0  0  0  0  0  0  0  0  0  0
   -9.0636  -13.6551   11.5375 C   0  0  0  0  0  0  0  0  0  0  0  0
   -8.6966  -12.3009   11.5726 C   0  0  0  0  0  0  0  0  0  0  0  0
   -7.3879  -11.9195   11.8809 C   0  0  0  0  0  0  0  0  0  0  0  0
   -6.4486  -12.9235   12.1551 C   0  0  0  0  0  0  0  0  0  0  0  0
   -6.8098  -14.2750   12.1207 C   0  0  0  0  0  0  0  0  0  0  0  0
   -4.6444  -12.5025   12.5849 Br  0  0  0  0  0  0  0  0  0  0  0  0
   -6.9476  -10.6242   11.9372 O   0  0  0  0  0  0  0  0  0  0  0  0
   -7.9020   -9.5910   11.7256 C   0  0  0  0  0  0  0  0  0  0  0  0
  1  2  1  0
  2  3  1  0
  3  4  2  0
  3  5  1  0
  5  6  2  0
  5 10  1  0
  6  7  1  0
  7  8  2  0
  8  9  1  0
  8 12  1  0
  9 10  2  0
  9 11  1  0
 12 13  1  0
M  END
>  <Gold.Gold.Protein.RotatedWaterAtoms>  (3) 


>  <Gold.Id.Protein>  (3) 


>  <Gold.PLP.Chemscore.CHOScore>  (3) 
0.0000

>  <Gold.PLP.Chemscore.Hbond>  (3) 
1.0000

>  <Gold.PLP.Chemscore.Internal.Correction>  (3) 
0.0000

>  <Gold.PLP.Chemscore.Metal>  (3) 
0.0000

>  <Gold.PLP.Fitness>  (3) 
43.9775

>  <Gold.PLP.PLP>  (3) 
-41.0517

>  <Gold.PLP.ligand.clash>  (3) 
0.0000

>  <Gold.PLP.ligand.torsion>  (3) 
0.0371

>  <Gold.PLP.part.buried>  (3) 
-3.7367

>  <Gold.PLP.part.hbond>  (3) 
-1.0000

>  <Gold.PLP.part.metal>  (3) 
0.0000

>  <Gold.PLP.part.nonpolar>  (3) 
-36.7483

>  <Gold.PLP.part.repulsive>  (3) 
0.4054

>  <Gold.Protein.RotatedAtoms>  (3) 


>  <Gold.Protein.RotatedTorsions>  (3) 


>  <Gold.Protein.RotatedWaterAtoms>  (3) 


>  <Gold.Version>  (3) 
5.3.0

>  <PLP.Chemscore.CHOScore>  (3) 


>  <PLP.Chemscore.Hbond>  (3) 


>  <PLP.Chemscore.Internal.Correction>  (3) 


>  <PLP.Chemscore.Metal>  (3) 


>  <PLP.Fitness>  (3) 


>  <PLP.PLP>  (3) 


>  <PLP.ligand.clash>  (3) 


>  <PLP.ligand.torsion>  (3) 


>  <PLP.part.buried>  (3) 


>  <PLP.part.hbond>  (3) 


>  <PLP.part.metal>  (3) 


>  <PLP.part.nonpolar>  (3) 


>  <PLP.part.repulsive>  (3) 


>  <RMSD>  (3) 
0.319376411377

>  <Torsion>  (3) 
169.460450784

>  <TorsionO>  (3) 
9.7963905484

>  <TorsionR>  (3) 
179.256841332

>  <Version>  (3) 


>  <product>  (3) 
28|Compound_19|Compounds_3D_F|sdf|6|dock1|1

>  <rmsd>  (3) 
-1

$$$$
128|137677_56|Aromatic_carboxylic_acids_F|sdf|33|dock1|1
     RDKit          3D

 11 11  0  0  0  0  0  0  0  0999 V2000
   -8.6116  -16.1544   11.8887 C   0  0  0  0  0  0  0  0  0  0  0  0
   -7.9978  -14.8484   11.9215 N   0  0  0  0  0  0  0  0  0  0  0  0
   -8.7778  -13.7008   11.8756 C   0  0  0  0  0  0  0  0  0  0  0  0
  -10.0002  -13.7896   11.8139 O   0  0  0  0  0  0  0  0  0  0  0  0
   -8.0808  -12.3609   11.9017 C   0  0  0  0  0  0  0  0  0  0  0  0
   -8.7916  -11.1851   11.5813 C   0  0  0  0  0  0  0  0  0  0  0  0
   -8.1781   -9.9267   11.5989 C   0  0  0  0  0  0  0  0  0  0  0  0
   -6.8391   -9.8089   11.9369 C   0  0  0  0  0  0  0  0  0  0  0  0
   -6.1124  -10.9502   12.2575 C   0  0  0  0  0  0  0  0  0  0  0  0
   -6.7171  -12.2196   12.2428 C   0  0  0  0  0  0  0  0  0  0  0  0
   -5.5419  -13.6455   12.7121 Br  0  0  0  0  0  0  0  0  0  0  0  0
  1  2  1  0
  2  3  1  0
  3  4  2  0
  3  5  1  0
  5  6  2  0
  5 10  1  0
  6  7  1  0
  7  8  2  0
  8  9  1  0
  9 10  2  0
 10 11  1  0
M  END
>  <Gold.Gold.Protein.RotatedWaterAtoms>  (4) 


>  <Gold.Id.Protein>  (4) 


>  <Gold.PLP.Chemscore.CHOScore>  (4) 
0.0000

>  <Gold.PLP.Chemscore.Hbond>  (4) 
1.0000

>  <Gold.PLP.Chemscore.Internal.Correction>  (4) 
0.0000

>  <Gold.PLP.Chemscore.Metal>  (4) 
0.0000

>  <Gold.PLP.Fitness>  (4) 
45.2899

>  <Gold.PLP.PLP>  (4) 
-42.4444

>  <Gold.PLP.ligand.clash>  (4) 
0.0000

>  <Gold.PLP.ligand.torsion>  (4) 
0.0772

>  <Gold.PLP.part.buried>  (4) 
-6.4690

>  <Gold.PLP.part.hbond>  (4) 
-0.6863

>  <Gold.PLP.part.metal>  (4) 
0.0000

>  <Gold.PLP.part.nonpolar>  (4) 
-34.8280

>  <Gold.PLP.part.repulsive>  (4) 
0.1963

>  <Gold.Protein.RotatedAtoms>  (4) 


>  <Gold.Protein.RotatedTorsions>  (4) 


>  <Gold.Protein.RotatedWaterAtoms>  (4) 


>  <Gold.Version>  (4) 
5.3.0

>  <PLP.Chemscore.CHOScore>  (4) 


>  <PLP.Chemscore.Hbond>  (4) 


>  <PLP.Chemscore.Internal.Correction>  (4) 


>  <PLP.Chemscore.Metal>  (4) 


>  <PLP.Fitness>  (4) 


>  <PLP.PLP>  (4) 


>  <PLP.ligand.clash>  (4) 


>  <PLP.ligand.torsion>  (4) 


>  <PLP.part.buried>  (4) 


>  <PLP.part.hbond>  (4) 


>  <PLP.part.metal>  (4) 


>  <PLP.part.nonpolar>  (4) 


>  <PLP.part.repulsive>  (4) 


>  <RMSD>  (4) 
0.428070490903

>  <Torsion>  (4) 
152.444048788

>  <TorsionO>  (4) 
39.0580871276

>  <TorsionR>  (4) 
168.497864085

>  <Version>  (4) 


>  <product>  (4) 
28|Compound_19|Compounds_3D_F|sdf|6|dock1|1

>  <rmsd>  (4) 
-1

$$$$
974|750794_1404|Aromatic_primary_amines_F|sdf|194|dock3|1
     RDKit          3D

 14 14  0  0  0  0  0  0  0  0999 V2000
  -13.6355  -18.1936    9.4145 C   0  0  0  0  0  0  0  0  0  0  0  0
  -13.2544  -19.4497   10.1732 C   0  0  0  0  0  0  0  0  0  0  0  0
  -11.8731  -19.3506   10.5383 O   0  0  0  0  0  0  0  0  0  0  0  0
  -11.6148  -18.5085   11.5823 C   0  0  0  0  0  0  0  0  0  0  0  0
  -12.3947  -18.2810   12.5004 O   0  0  0  0  0  0  0  0  0  0  0  0
  -10.3031  -17.8985   11.4902 C   0  0  0  0  0  0  0  0  0  0  0  0
   -9.1673  -18.4974   10.9931 C   0  0  0  0  0  0  0  0  0  0  0  0
   -8.1448  -17.6055   11.0758 O   0  0  0  0  0  0  0  0  0  0  0  0
   -8.7110  -16.4917   11.6237 C   0  0  0  0  0  0  0  0  0  0  0  0
   -9.9933  -16.6110   11.8915 N   0  0  0  0  0  0  0  0  0  0  0  0
   -7.9611  -15.3718   11.8549 N   0  0  0  0  0  0  0  0  0  0  0  0
   -8.5046  -14.1249   12.0676 C   0  0  0  0  0  0  0  0  0  0  0  0
   -9.6950  -13.8313   12.1035 O   0  0  0  0  0  0  0  0  0  0  0  0
   -7.4448  -13.0785   12.3021 C   0  0  0  0  0  0  0  0  0  0  0  0
  1  2  1  0
  2  3  1  0
  3  4  1  0
  4  5  2  0
  4  6  1  0
  6  7  2  0
  6 10  1  0
  7  8  1  0
  8  9  1  0
  9 10  2  0
  9 11  1  0
 11 12  1  0
 12 13  2  0
 12 14  1  0
M  END
>  <Gold.Gold.Protein.RotatedWaterAtoms>  (5) 


>  <Gold.Id.Protein>  (5) 


>  <Gold.PLP.Chemscore.CHOScore>  (5) 
0.0000

>  <Gold.PLP.Chemscore.Hbond>  (5) 
2.0000

>  <Gold.PLP.Chemscore.Internal.Correction>  (5) 
0.0053

>  <Gold.PLP.Chemscore.Metal>  (5) 
0.0000

>  <Gold.PLP.Fitness>  (5) 
36.8047

>  <Gold.PLP.PLP>  (5) 
-32.7996

>  <Gold.PLP.ligand.clash>  (5) 
0.0000

>  <Gold.PLP.ligand.torsion>  (5) 
1.0001

>  <Gold.PLP.part.buried>  (5) 
-6.5206

>  <Gold.PLP.part.hbond>  (5) 
-2.9156

>  <Gold.PLP.part.metal>  (5) 
0.0000

>  <Gold.PLP.part.nonpolar>  (5) 
-23.4080

>  <Gold.PLP.part.repulsive>  (5) 
0.3100

>  <Gold.Protein.RotatedAtoms>  (5) 


>  <Gold.Protein.RotatedTorsions>  (5) 


>  <Gold.Protein.RotatedWaterAtoms>  (5) 


>  <Gold.Version>  (5) 
5.3.0

>  <PLP.Chemscore.CHOScore>  (5) 


>  <PLP.Chemscore.Hbond>  (5) 


>  <PLP.Chemscore.Internal.Correction>  (5) 


>  <PLP.Chemscore.Metal>  (5) 


>  <PLP.Fitness>  (5) 


>  <PLP.PLP>  (5) 


>  <PLP.ligand.clash>  (5) 


>  <PLP.ligand.torsion>  (5) 


>  <PLP.part.buried>  (5) 


>  <PLP.part.hbond>  (5) 


>  <PLP.part.metal>  (5) 


>  <PLP.part.nonpolar>  (5) 


>  <PLP.part.repulsive>  (5) 


>  <RMSD>  (5) 
0.499949349045

>  <Torsion>  (5) 
159.973716791

>  <TorsionO>  (5) 
19.1052109979

>  <TorsionR>  (5) 
179.078927789

>  <Version>  (5) 


>  <product>  (5) 
28|Compound_19|Compounds_3D_F|sdf|6|dock1|1

>  <rmsd>  (5) 
-1

$$$$
1884|M3006_1781|Aromatic_primary_amines_F|sdf|361|dock3|1
     RDKit          3D

 31 34  0  0  0  0  0  0  0  0999 V2000
  -14.4210  -19.8971    8.7934 C   0  0  0  0  0  0  0  0  0  0  0  0
  -13.9762  -19.4927   10.1894 C   0  0  0  0  0  0  0  0  0  0  0  0
  -14.1356  -20.6409   11.1817 C   0  0  0  0  0  0  0  0  0  0  0  0
  -13.5197  -20.3070   12.5189 C   0  0  0  0  0  0  0  0  0  0  0  0
  -12.9307  -19.2724   12.7954 O   0  0  0  0  0  0  0  0  0  0  0  0
  -13.7110  -21.3451   13.3845 O   0  0  0  0  0  0  0  0  0  0  0  0
  -12.9425  -21.2698   14.5900 C   0  0  0  0  0  0  0  0  0  0  0  0
  -12.8849  -22.6189   15.2889 C   0  0  0  0  0  0  0  0  0  0  0  0
  -11.6552  -22.4172   16.1494 C   0  0  0  0  0  0  0  0  0  0  0  0
  -11.2420  -23.7410   16.7624 C   0  0  0  0  0  0  0  0  0  0  0  0
  -12.3024  -24.2223   17.5862 O   0  0  0  0  0  0  0  0  0  0  0  0
  -13.7888  -24.3384   16.9603 P   0  0  0  0  0  0  0  0  0  0  0  0
  -14.8775  -24.6795   17.9243 O   0  0  0  0  0  0  0  0  0  0  0  0
  -13.9839  -22.9641   16.1174 O   0  0  0  0  0  0  0  0  0  0  0  0
  -13.5991  -25.4435   15.8075 O   0  0  0  0  0  0  0  0  0  0  0  0
  -10.6922  -21.8161   15.2889 O   0  0  0  0  0  0  0  0  0  0  0  0
  -11.4338  -20.9664   14.3653 C   0  0  0  0  0  0  0  0  0  0  0  0
  -10.9052  -21.2017   13.0342 N   0  0  0  0  0  0  0  0  0  0  0  0
  -10.7814  -22.4114   12.4013 C   0  0  0  0  0  0  0  0  0  0  0  0
  -10.2640  -22.2918   11.1953 N   0  0  0  0  0  0  0  0  0  0  0  0
  -10.0274  -20.9476   11.0424 C   0  0  0  0  0  0  0  0  0  0  0  0
  -10.4203  -20.2487   12.1733 C   0  0  0  0  0  0  0  0  0  0  0  0
  -10.3338  -18.9216   12.3641 N   0  0  0  0  0  0  0  0  0  0  0  0
   -9.8057  -18.2730   11.3024 C   0  0  0  0  0  0  0  0  0  0  0  0
   -9.3808  -18.8370   10.1545 N   0  0  0  0  0  0  0  0  0  0  0  0
   -9.4895  -20.1691   10.0244 C   0  0  0  0  0  0  0  0  0  0  0  0
   -9.0330  -20.6622    8.8349 O   0  0  0  0  0  0  0  0  0  0  0  0
   -9.7222  -16.8901   11.4793 N   0  0  0  0  0  0  0  0  0  0  0  0
   -8.5796  -16.1798   11.7761 C   0  0  0  0  0  0  0  0  0  0  0  0
   -7.4445  -16.6221   11.9131 O   0  0  0  0  0  0  0  0  0  0  0  0
   -8.8524  -14.7024   11.8973 C   0  0  0  0  0  0  0  0  0  0  0  0
  1  2  1  0
  2  3  1  0
  3  4  1  0
  4  5  2  0
  4  6  1  0
  6  7  1  0
  7  8  1  0
  7 17  1  0
  8  9  1  0
  8 14  1  0
  9 10  1  0
  9 16  1  0
 10 11  1  0
 11 12  1  0
 12 13  2  0
 12 14  1  0
 12 15  1  0
 16 17  1  0
 17 18  1  0
 18 19  1  0
 18 22  1  0
 19 20  2  0
 20 21  1  0
 21 22  2  0
 21 26  1  0
 22 23  1  0
 23 24  2  0
 24 25  1  0
 24 28  1  0
 25 26  2  0
 26 27  1  0
 28 29  1  0
 29 30  2  0
 29 31  1  0
M  END
>  <Gold.Gold.Protein.RotatedWaterAtoms>  (6) 


>  <Gold.Id.Protein>  (6) 


>  <Gold.PLP.Chemscore.CHOScore>  (6) 
0.0000

>  <Gold.PLP.Chemscore.Hbond>  (6) 
1.2080

>  <Gold.PLP.Chemscore.Internal.Correction>  (6) 
0.1232

>  <Gold.PLP.Chemscore.Metal>  (6) 
0.0000

>  <Gold.PLP.Fitness>  (6) 
47.7145

>  <Gold.PLP.PLP>  (6) 
-46.0218

>  <Gold.PLP.ligand.clash>  (6) 
0.0000

>  <Gold.PLP.ligand.torsion>  (6) 
1.0272

>  <Gold.PLP.part.buried>  (6) 
-2.2958

>  <Gold.PLP.part.hbond>  (6) 
-4.0214

>  <Gold.PLP.part.metal>  (6) 
0.0000

>  <Gold.PLP.part.nonpolar>  (6) 
-41.4699

>  <Gold.PLP.part.repulsive>  (6) 
0.9524

>  <Gold.Protein.RotatedAtoms>  (6) 


>  <Gold.Protein.RotatedTorsions>  (6) 


>  <Gold.Protein.RotatedWaterAtoms>  (6) 


>  <Gold.Version>  (6) 
5.3.0

>  <PLP.Chemscore.CHOScore>  (6) 


>  <PLP.Chemscore.Hbond>  (6) 


>  <PLP.Chemscore.Internal.Correction>  (6) 


>  <PLP.Chemscore.Metal>  (6) 


>  <PLP.Fitness>  (6) 


>  <PLP.PLP>  (6) 


>  <PLP.ligand.clash>  (6) 


>  <PLP.ligand.torsion>  (6) 


>  <PLP.part.buried>  (6) 


>  <PLP.part.hbond>  (6) 


>  <PLP.part.metal>  (6) 


>  <PLP.part.nonpolar>  (6) 


>  <PLP.part.repulsive>  (6) 


>  <RMSD>  (6) 
0.291955871297

>  <Torsion>  (6) 
171.923704933

>  <TorsionO>  (6) 
6.03609353985

>  <TorsionR>  (6) 
177.959798473

>  <Version>  (6) 


>  <product>  (6) 
28|Compound_19|Compounds_3D_F|sdf|6|dock1|1

>  <rmsd>  (6) 
-1

$$$$
193|32168_281|Aromatic_primary_amines_F|sdf|39|dock6|1
     RDKit          3D

 23 25  0  0  0  0  0  0  0  0999 V2000
   -7.8439  -12.1461   11.8919 C   0  0  0  0  0  0  0  0  0  0  0  0
   -8.5691  -13.4472   11.6781 C   0  0  0  0  0  0  0  0  0  0  0  0
   -9.7886  -13.4981   11.5208 O   0  0  0  0  0  0  0  0  0  0  0  0
   -7.7264  -14.5390   11.7020 N   0  0  0  0  0  0  0  0  0  0  0  0
   -8.1889  -15.8197   11.5323 C   0  0  0  0  0  0  0  0  0  0  0  0
   -9.4747  -16.2039   11.8163 N   0  0  0  0  0  0  0  0  0  0  0  0
   -9.5964  -17.5375   11.5379 C   0  0  0  0  0  0  0  0  0  0  0  0
  -10.6643  -18.4283   11.6415 C   0  0  0  0  0  0  0  0  0  0  0  0
  -10.4051  -19.7586   11.2778 C   0  0  0  0  0  0  0  0  0  0  0  0
   -9.1530  -20.1507   10.7795 C   0  0  0  0  0  0  0  0  0  0  0  0
   -8.1017  -19.2294   10.6839 C   0  0  0  0  0  0  0  0  0  0  0  0
   -8.3349  -17.9032   11.0783 C   0  0  0  0  0  0  0  0  0  0  0  0
   -7.4773  -16.8281   11.0838 N   0  0  0  0  0  0  0  0  0  0  0  0
   -8.8530  -21.7658   10.2429 Cl  0  0  0  0  0  0  0  0  0  0  0  0
  -11.4669  -20.6323   11.3734 O   0  0  0  0  0  0  0  0  0  0  0  0
  -12.5262  -20.4408   10.5053 C   0  0  0  0  0  0  0  0  0  0  0  0
  -13.3188  -19.2846   10.5304 C   0  0  0  0  0  0  0  0  0  0  0  0
  -14.3665  -19.1344    9.6224 C   0  0  0  0  0  0  0  0  0  0  0  0
  -14.6219  -20.1279    8.6796 C   0  0  0  0  0  0  0  0  0  0  0  0
  -13.8238  -21.2756    8.6345 C   0  0  0  0  0  0  0  0  0  0  0  0
  -12.7674  -21.4342    9.5416 C   0  0  0  0  0  0  0  0  0  0  0  0
  -11.7588  -22.8458    9.4996 Cl  0  0  0  0  0  0  0  0  0  0  0  0
  -14.1988  -22.4584    7.4296 Cl  0  0  0  0  0  0  0  0  0  0  0  0
  1  2  1  0
  2  3  2  0
  2  4  1  0
  4  5  1  0
  5  6  1  0
  5 13  2  0
  6  7  1  0
  7  8  2  0
  7 12  1  0
  8  9  1  0
  9 10  2  0
  9 15  1  0
 10 11  1  0
 10 14  1  0
 11 12  2  0
 12 13  1  0
 15 16  1  0
 16 17  2  0
 16 21  1  0
 17 18  1  0
 18 19  2  0
 19 20  1  0
 20 21  2  0
 20 23  1  0
 21 22  1  0
M  END
>  <Gold.Gold.Protein.RotatedWaterAtoms>  (7) 


>  <Gold.Id.Protein>  (7) 


>  <Gold.PLP.Chemscore.CHOScore>  (7) 
0.0000

>  <Gold.PLP.Chemscore.Hbond>  (7) 
1.0000

>  <Gold.PLP.Chemscore.Internal.Correction>  (7) 
0.0086

>  <Gold.PLP.Chemscore.Metal>  (7) 
0.0000

>  <Gold.PLP.Fitness>  (7) 
50.7139

>  <Gold.PLP.PLP>  (7) 
-48.1706

>  <Gold.PLP.ligand.clash>  (7) 
0.0000

>  <Gold.PLP.ligand.torsion>  (7) 
0.2327

>  <Gold.PLP.part.buried>  (7) 
-6.5205

>  <Gold.PLP.part.hbond>  (7) 
-2.0000

>  <Gold.PLP.part.metal>  (7) 
0.0000

>  <Gold.PLP.part.nonpolar>  (7) 
-39.3857

>  <Gold.PLP.part.repulsive>  (7) 
0.3298

>  <Gold.Protein.RotatedAtoms>  (7) 


>  <Gold.Protein.RotatedTorsions>  (7) 


>  <Gold.Protein.RotatedWaterAtoms>  (7) 


>  <Gold.Version>  (7) 
5.3.0

>  <PLP.Chemscore.CHOScore>  (7) 


>  <PLP.Chemscore.Hbond>  (7) 


>  <PLP.Chemscore.Internal.Correction>  (7) 


>  <PLP.Chemscore.Metal>  (7) 


>  <PLP.Fitness>  (7) 


>  <PLP.PLP>  (7) 


>  <PLP.ligand.clash>  (7) 


>  <PLP.ligand.torsion>  (7) 


>  <PLP.part.buried>  (7) 


>  <PLP.part.hbond>  (7) 


>  <PLP.part.metal>  (7) 


>  <PLP.part.nonpolar>  (7) 


>  <PLP.part.repulsive>  (7) 


>  <RMSD>  (7) 
0.439733510035

>  <Torsion>  (7) 
177.672185574

>  <TorsionO>  (7) 
4.31728583372

>  <TorsionR>  (7) 
173.35489974

>  <Version>  (7) 


>  <product>  (7) 
28|Compound_19|Compounds_3D_F|sdf|6|dock1|1

>  <rmsd>  (7) 
-1

$$$$
72|Compound_26|Compounds_3D_F|sdf|12|dock4|1
     RDKit          3D

  9  8  0  0  0  0  0  0  0  0999 V2000
   -9.3782  -13.6910   11.8710 O   0  0  0  0  0  0  0  0  0  0  0  0
   -8.1462  -14.1286   11.5703 C   0  0  0  0  0  0  0  0  0  0  0  0
   -7.9867  -15.2562   11.1647 O   0  0  0  0  0  0  0  0  0  0  0  0
   -6.9596  -13.2147   11.7388 C   0  0  0  0  0  0  0  0  0  0  0  0
   -5.9738  -13.8352   12.7308 C   0  0  0  0  0  0  0  0  0  0  0  0
   -4.9478  -14.5816   11.9982 N   0  0  0  0  0  0  0  0  0  0  0  0
   -4.8963  -15.9247   12.0911 C   0  0  0  0  0  0  0  0  0  0  0  0
   -5.6990  -16.5164   12.7808 O   0  0  0  0  0  0  0  0  0  0  0  0
   -3.7976  -16.7247   11.3046 B   0  0  0  0  0  0  0  0  0  0  0  0
  1  2  1  0
  2  3  2  0
  2  4  1  0
  4  5  1  0
  5  6  1  0
  6  7  1  0
  7  8  2  0
  7  9  1  0
M  END
>  <Gold.Gold.Protein.RotatedWaterAtoms>  (8) 


>  <Gold.Id.Protein>  (8) 


>  <Gold.PLP.Chemscore.CHOScore>  (8) 
0.0000

>  <Gold.PLP.Chemscore.Hbond>  (8) 
2.0000

>  <Gold.PLP.Chemscore.Internal.Correction>  (8) 
0.0004

>  <Gold.PLP.Chemscore.Metal>  (8) 
0.0000

>  <Gold.PLP.Fitness>  (8) 
30.8137

>  <Gold.PLP.PLP>  (8) 
-25.3443

>  <Gold.PLP.ligand.clash>  (8) 
0.0000

>  <Gold.PLP.ligand.torsion>  (8) 
0.2655

>  <Gold.PLP.part.buried>  (8) 
-5.7187

>  <Gold.PLP.part.hbond>  (8) 
-2.7189

>  <Gold.PLP.part.metal>  (8) 
0.0000

>  <Gold.PLP.part.nonpolar>  (8) 
-16.8917

>  <Gold.PLP.part.repulsive>  (8) 
0.2309

>  <Gold.Protein.RotatedAtoms>  (8) 


>  <Gold.Protein.RotatedTorsions>  (8) 


>  <Gold.Protein.RotatedWaterAtoms>  (8) 


>  <Gold.Version>  (8) 
5.3.0

>  <PLP.Chemscore.CHOScore>  (8) 


>  <PLP.Chemscore.Hbond>  (8) 


>  <PLP.Chemscore.Internal.Correction>  (8) 


>  <PLP.Chemscore.Metal>  (8) 


>  <PLP.Fitness>  (8) 


>  <PLP.PLP>  (8) 


>  <PLP.ligand.clash>  (8) 


>  <PLP.ligand.torsion>  (8) 


>  <PLP.part.buried>  (8) 


>  <PLP.part.hbond>  (8) 


>  <PLP.part.metal>  (8) 


>  <PLP.part.nonpolar>  (8) 


>  <PLP.part.repulsive>  (8) 


>  <Version>  (8) 


$$$$
94|664022_40|Aromatic_carboxylic_acids_F|sdf|24|dock1|1
     RDKit          3D

 12 12  0  0  0  0  0  0  0  0999 V2000
   -8.2596  -17.1212   11.4595 C   0  0  0  0  0  0  0  0  0  0  0  0
   -7.6366  -15.8367   11.6688 N   0  0  0  0  0  0  0  0  0  0  0  0
   -8.3409  -14.6553   11.5719 C   0  0  0  0  0  0  0  0  0  0  0  0
   -9.5296  -14.5547   11.2978 O   0  0  0  0  0  0  0  0  0  0  0  0
   -7.5420  -13.4431   11.8503 C   0  0  0  0  0  0  0  0  0  0  0  0
   -8.1627  -12.1983   11.6738 C   0  0  0  0  0  0  0  0  0  0  0  0
   -7.4390  -11.0301   11.9055 C   0  0  0  0  0  0  0  0  0  0  0  0
   -6.1069  -11.0910   12.3103 C   0  0  0  0  0  0  0  0  0  0  0  0
   -5.4897  -12.3324   12.4853 C   0  0  0  0  0  0  0  0  0  0  0  0
   -6.2035  -13.5136   12.2549 C   0  0  0  0  0  0  0  0  0  0  0  0
   -5.3062  -15.1564   12.5638 Br  0  0  0  0  0  0  0  0  0  0  0  0
   -8.1960   -9.5005   11.6887 Cl  0  0  0  0  0  0  0  0  0  0  0  0
  1  2  1  0
  2  3  1  0
  3  4  2  0
  3  5  1  0
  5  6  2  0
  5 10  1  0
  6  7  1  0
  7  8  2  0
  7 12  1  0
  8  9  1  0
  9 10  2  0
 10 11  1  0
M  END
>  <Gold.Gold.Protein.RotatedWaterAtoms>  (9) 


>  <Gold.Id.Protein>  (9) 


>  <Gold.PLP.Chemscore.CHOScore>  (9) 
0.0000

>  <Gold.PLP.Chemscore.Hbond>  (9) 
0.4160

>  <Gold.PLP.Chemscore.Internal.Correction>  (9) 
0.0004

>  <Gold.PLP.Chemscore.Metal>  (9) 
0.0000

>  <Gold.PLP.Fitness>  (9) 
48.9046

>  <Gold.PLP.PLP>  (9) 
-47.6744

>  <Gold.PLP.ligand.clash>  (9) 
0.0000

>  <Gold.PLP.ligand.torsion>  (9) 
0.0091

>  <Gold.PLP.part.buried>  (9) 
-7.3578

>  <Gold.PLP.part.hbond>  (9) 
-0.5127

>  <Gold.PLP.part.metal>  (9) 
0.0000

>  <Gold.PLP.part.nonpolar>  (9) 
-40.3098

>  <Gold.PLP.part.repulsive>  (9) 
0.1684

>  <Gold.Protein.RotatedAtoms>  (9) 


>  <Gold.Protein.RotatedTorsions>  (9) 


>  <Gold.Protein.RotatedWaterAtoms>  (9) 


>  <Gold.Version>  (9) 
5.3.0

>  <PLP.Chemscore.CHOScore>  (9) 


>  <PLP.Chemscore.Hbond>  (9) 


>  <PLP.Chemscore.Internal.Correction>  (9) 


>  <PLP.Chemscore.Metal>  (9) 


>  <PLP.Fitness>  (9) 


>  <PLP.PLP>  (9) 


>  <PLP.ligand.clash>  (9) 


>  <PLP.ligand.torsion>  (9) 


>  <PLP.part.buried>  (9) 


>  <PLP.part.hbond>  (9) 


>  <PLP.part.metal>  (9) 


>  <PLP.part.nonpolar>  (9) 


>  <PLP.part.repulsive>  (9) 


>  <RMSD>  (9) 
0.30972197429

>  <Torsion>  (9) 
172.929186758

>  <TorsionO>  (9) 
24.4968065243

>  <TorsionR>  (9) 
162.574006718

>  <Version>  (9) 


>  <product>  (9) 
72|Compound_26|Compounds_3D_F|sdf|12|dock4|1

>  <rmsd>  (9) 
-1

$$$$
110|565385_49|Aromatic_carboxylic_acids_F|sdf|29|dock1|1
     RDKit          3D

 13 13  0  0  0  0  0  0  0  0999 V2000
  -10.1118  -17.9021   11.6320 C   0  0  0  0  0  0  0  0  0  0  0  0
   -9.7537  -16.5043   11.6546 N   0  0  0  0  0  0  0  0  0  0  0  0
   -8.4330  -16.1187   11.7930 C   0  0  0  0  0  0  0  0  0  0  0  0
   -7.5159  -16.9298   11.9008 O   0  0  0  0  0  0  0  0  0  0  0  0
   -8.1234  -14.6552   11.8105 C   0  0  0  0  0  0  0  0  0  0  0  0
   -9.0636  -13.6551   11.5375 C   0  0  0  0  0  0  0  0  0  0  0  0
   -8.6966  -12.3009   11.5726 C   0  0  0  0  0  0  0  0  0  0  0  0
   -7.3879  -11.9195   11.8809 C   0  0  0  0  0  0  0  0  0  0  0  0
   -6.4486  -12.9235   12.1551 C   0  0  0  0  0  0  0  0  0  0  0  0
   -6.8098  -14.2750   12.1207 C   0  0  0  0  0  0  0  0  0  0  0  0
   -4.6444  -12.5025   12.5849 Br  0  0  0  0  0  0  0  0  0  0  0  0
   -6.9476  -10.6242   11.9372 O   0  0  0  0  0  0  0  0  0  0  0  0
   -7.9020   -9.5910   11.7256 C   0  0  0  0  0  0  0  0  0  0  0  0
  1  2  1  0
  2  3  1  0
  3  4  2  0
  3  5  1  0
  5  6  2  0
  5 10  1  0
  6  7  1  0
  7  8  2  0
  8  9  1  0
  8 12  1  0
  9 10  2  0
  9 11  1  0
 12 13  1  0
M  END
>  <Gold.Gold.Protein.RotatedWaterAtoms>  (10) 


>  <Gold.Id.Protein>  (10) 


>  <Gold.PLP.Chemscore.CHOScore>  (10) 
0.0000

>  <Gold.PLP.Chemscore.Hbond>  (10) 
1.0000

>  <Gold.PLP.Chemscore.Internal.Correction>  (10) 
0.0000

>  <Gold.PLP.Chemscore.Metal>  (10) 
0.0000

>  <Gold.PLP.Fitness>  (10) 
43.9775

>  <Gold.PLP.PLP>  (10) 
-41.0517

>  <Gold.PLP.ligand.clash>  (10) 
0.0000

>  <Gold.PLP.ligand.torsion>  (10) 
0.0371

>  <Gold.PLP.part.buried>  (10) 
-3.7367

>  <Gold.PLP.part.hbond>  (10) 
-1.0000

>  <Gold.PLP.part.metal>  (10) 
0.0000

>  <Gold.PLP.part.nonpolar>  (10) 
-36.7483

>  <Gold.PLP.part.repulsive>  (10) 
0.4054

>  <Gold.Protein.RotatedAtoms>  (10) 


>  <Gold.Protein.RotatedTorsions>  (10) 


>  <Gold.Protein.RotatedWaterAtoms>  (10) 


>  <Gold.Version>  (10) 
5.3.0

>  <PLP.Chemscore.CHOScore>  (10) 


>  <PLP.Chemscore.Hbond>  (10) 


>  <PLP.Chemscore.Internal.Correction>  (10) 


>  <PLP.Chemscore.Metal>  (10) 


>  <PLP.Fitness>  (10) 


>  <PLP.PLP>  (10) 


>  <PLP.ligand.clash>  (10) 


>  <PLP.ligand.torsion>  (10) 


>  <PLP.part.buried>  (10) 


>  <PLP.part.hbond>  (10) 


>  <PLP.part.metal>  (10) 


>  <PLP.part.nonpolar>  (10) 


>  <PLP.part.repulsive>  (10) 


>  <RMSD>  (10) 
0.319376411377

>  <Torsion>  (10) 
169.460450784

>  <TorsionO>  (10) 
9.7963905484

>  <TorsionR>  (10) 
179.256841332

>  <Version>  (10) 


>  <product>  (10) 
72|Compound_26|Compounds_3D_F|sdf|12|dock4|1

>  <rmsd>  (10) 
-1

$$$$
128|137677_56|Aromatic_carboxylic_acids_F|sdf|33|dock1|1
     RDKit          3D

 11 11  0  0  0  0  0  0  0  0999 V2000
   -8.6116  -16.1544   11.8887 C   0  0  0  0  0  0  0  0  0  0  0  0
   -7.9978  -14.8484   11.9215 N   0  0  0  0  0  0  0  0  0  0  0  0
   -8.7778  -13.7008   11.8756 C   0  0  0  0  0  0  0  0  0  0  0  0
  -10.0002  -13.7896   11.8139 O   0  0  0  0  0  0  0  0  0  0  0  0
   -8.0808  -12.3609   11.9017 C   0  0  0  0  0  0  0  0  0  0  0  0
   -8.7916  -11.1851   11.5813 C   0  0  0  0  0  0  0  0  0  0  0  0
   -8.1781   -9.9267   11.5989 C   0  0  0  0  0  0  0  0  0  0  0  0
   -6.8391   -9.8089   11.9369 C   0  0  0  0  0  0  0  0  0  0  0  0
   -6.1124  -10.9502   12.2575 C   0  0  0  0  0  0  0  0  0  0  0  0
   -6.7171  -12.2196   12.2428 C   0  0  0  0  0  0  0  0  0  0  0  0
   -5.5419  -13.6455   12.7121 Br  0  0  0  0  0  0  0  0  0  0  0  0
  1  2  1  0
  2  3  1  0
  3  4  2  0
  3  5  1  0
  5  6  2  0
  5 10  1  0
  6  7  1  0
  7  8  2  0
  8  9  1  0
  9 10  2  0
 10 11  1  0
M  END
>  <Gold.Gold.Protein.RotatedWaterAtoms>  (11) 


>  <Gold.Id.Protein>  (11) 


>  <Gold.PLP.Chemscore.CHOScore>  (11) 
0.0000

>  <Gold.PLP.Chemscore.Hbond>  (11) 
1.0000

>  <Gold.PLP.Chemscore.Internal.Correction>  (11) 
0.0000

>  <Gold.PLP.Chemscore.Metal>  (11) 
0.0000

>  <Gold.PLP.Fitness>  (11) 
45.2899

>  <Gold.PLP.PLP>  (11) 
-42.4444

>  <Gold.PLP.ligand.clash>  (11) 
0.0000

>  <Gold.PLP.ligand.torsion>  (11) 
0.0772

>  <Gold.PLP.part.buried>  (11) 
-6.4690

>  <Gold.PLP.part.hbond>  (11) 
-0.6863

>  <Gold.PLP.part.metal>  (11) 
0.0000

>  <Gold.PLP.part.nonpolar>  (11) 
-34.8280

>  <Gold.PLP.part.repulsive>  (11) 
0.1963

>  <Gold.Protein.RotatedAtoms>  (11) 


>  <Gold.Protein.RotatedTorsions>  (11) 


>  <Gold.Protein.RotatedWaterAtoms>  (11) 


>  <Gold.Version>  (11) 
5.3.0

>  <PLP.Chemscore.CHOScore>  (11) 


>  <PLP.Chemscore.Hbond>  (11) 


>  <PLP.Chemscore.Internal.Correction>  (11) 


>  <PLP.Chemscore.Metal>  (11) 


>  <PLP.Fitness>  (11) 


>  <PLP.PLP>  (11) 


>  <PLP.ligand.clash>  (11) 


>  <PLP.ligand.torsion>  (11) 


>  <PLP.part.buried>  (11) 


>  <PLP.part.hbond>  (11) 


>  <PLP.part.metal>  (11) 


>  <PLP.part.nonpolar>  (11) 


>  <PLP.part.repulsive>  (11) 


>  <RMSD>  (11) 
0.428070490903

>  <Torsion>  (11) 
152.444048788

>  <TorsionO>  (11) 
39.0580871276

>  <TorsionR>  (11) 
168.497864085

>  <Version>  (11) 


>  <product>  (11) 
72|Compound_26|Compounds_3D_F|sdf|12|dock4|1

>  <rmsd>  (11) 
-1

$$$$
974|750794_1404|Aromatic_primary_amines_F|sdf|194|dock3|1
     RDKit          3D

 14 14  0  0  0  0  0  0  0  0999 V2000
  -13.6355  -18.1936    9.4145 C   0  0  0  0  0  0  0  0  0  0  0  0
  -13.2544  -19.4497   10.1732 C   0  0  0  0  0  0  0  0  0  0  0  0
  -11.8731  -19.3506   10.5383 O   0  0  0  0  0  0  0  0  0  0  0  0
  -11.6148  -18.5085   11.5823 C   0  0  0  0  0  0  0  0  0  0  0  0
  -12.3947  -18.2810   12.5004 O   0  0  0  0  0  0  0  0  0  0  0  0
  -10.3031  -17.8985   11.4902 C   0  0  0  0  0  0  0  0  0  0  0  0
   -9.1673  -18.4974   10.9931 C   0  0  0  0  0  0  0  0  0  0  0  0
   -8.1448  -17.6055   11.0758 O   0  0  0  0  0  0  0  0  0  0  0  0
   -8.7110  -16.4917   11.6237 C   0  0  0  0  0  0  0  0  0  0  0  0
   -9.9933  -16.6110   11.8915 N   0  0  0  0  0  0  0  0  0  0  0  0
   -7.9611  -15.3718   11.8549 N   0  0  0  0  0  0  0  0  0  0  0  0
   -8.5046  -14.1249   12.0676 C   0  0  0  0  0  0  0  0  0  0  0  0
   -9.6950  -13.8313   12.1035 O   0  0  0  0  0  0  0  0  0  0  0  0
   -7.4448  -13.0785   12.3021 C   0  0  0  0  0  0  0  0  0  0  0  0
  1  2  1  0
  2  3  1  0
  3  4  1  0
  4  5  2  0
  4  6  1  0
  6  7  2  0
  6 10  1  0
  7  8  1  0
  8  9  1  0
  9 10  2  0
  9 11  1  0
 11 12  1  0
 12 13  2  0
 12 14  1  0
M  END
>  <Gold.Gold.Protein.RotatedWaterAtoms>  (12) 


>  <Gold.Id.Protein>  (12) 


>  <Gold.PLP.Chemscore.CHOScore>  (12) 
0.0000

>  <Gold.PLP.Chemscore.Hbond>  (12) 
2.0000

>  <Gold.PLP.Chemscore.Internal.Correction>  (12) 
0.0053

>  <Gold.PLP.Chemscore.Metal>  (12) 
0.0000

>  <Gold.PLP.Fitness>  (12) 
36.8047

>  <Gold.PLP.PLP>  (12) 
-32.7996

>  <Gold.PLP.ligand.clash>  (12) 
0.0000

>  <Gold.PLP.ligand.torsion>  (12) 
1.0001

>  <Gold.PLP.part.buried>  (12) 
-6.5206

>  <Gold.PLP.part.hbond>  (12) 
-2.9156

>  <Gold.PLP.part.metal>  (12) 
0.0000

>  <Gold.PLP.part.nonpolar>  (12) 
-23.4080

>  <Gold.PLP.part.repulsive>  (12) 
0.3100

>  <Gold.Protein.RotatedAtoms>  (12) 


>  <Gold.Protein.RotatedTorsions>  (12) 


>  <Gold.Protein.RotatedWaterAtoms>  (12) 


>  <Gold.Version>  (12) 
5.3.0

>  <PLP.Chemscore.CHOScore>  (12) 


>  <PLP.Chemscore.Hbond>  (12) 


>  <PLP.Chemscore.Internal.Correction>  (12) 


>  <PLP.Chemscore.Metal>  (12) 


>  <PLP.Fitness>  (12) 


>  <PLP.PLP>  (12) 


>  <PLP.ligand.clash>  (12) 


>  <PLP.ligand.torsion>  (12) 


>  <PLP.part.buried>  (12) 


>  <PLP.part.hbond>  (12) 


>  <PLP.part.metal>  (12) 


>  <PLP.part.nonpolar>  (12) 


>  <PLP.part.repulsive>  (12) 


>  <RMSD>  (12) 
0.499949349045

>  <Torsion>  (12) 
159.973716791

>  <TorsionO>  (12) 
19.1052109979

>  <TorsionR>  (12) 
179.078927789

>  <Version>  (12) 


>  <product>  (12) 
72|Compound_26|Compounds_3D_F|sdf|12|dock4|1

>  <rmsd>  (12) 
-1

$$$$
1884|M3006_1781|Aromatic_primary_amines_F|sdf|361|dock3|1
     RDKit          3D

 31 34  0  0  0  0  0  0  0  0999 V2000
  -14.4210  -19.8971    8.7934 C   0  0  0  0  0  0  0  0  0  0  0  0
  -13.9762  -19.4927   10.1894 C   0  0  0  0  0  0  0  0  0  0  0  0
  -14.1356  -20.6409   11.1817 C   0  0  0  0  0  0  0  0  0  0  0  0
  -13.5197  -20.3070   12.5189 C   0  0  0  0  0  0  0  0  0  0  0  0
  -12.9307  -19.2724   12.7954 O   0  0  0  0  0  0  0  0  0  0  0  0
  -13.7110  -21.3451   13.3845 O   0  0  0  0  0  0  0  0  0  0  0  0
  -12.9425  -21.2698   14.5900 C   0  0  0  0  0  0  0  0  0  0  0  0
  -12.8849  -22.6189   15.2889 C   0  0  0  0  0  0  0  0  0  0  0  0
  -11.6552  -22.4172   16.1494 C   0  0  0  0  0  0  0  0  0  0  0  0
  -11.2420  -23.7410   16.7624 C   0  0  0  0  0  0  0  0  0  0  0  0
  -12.3024  -24.2223   17.5862 O   0  0  0  0  0  0  0  0  0  0  0  0
  -13.7888  -24.3384   16.9603 P   0  0  0  0  0  0  0  0  0  0  0  0
  -14.8775  -24.6795   17.9243 O   0  0  0  0  0  0  0  0  0  0  0  0
  -13.9839  -22.9641   16.1174 O   0  0  0  0  0  0  0  0  0  0  0  0
  -13.5991  -25.4435   15.8075 O   0  0  0  0  0  0  0  0  0  0  0  0
  -10.6922  -21.8161   15.2889 O   0  0  0  0  0  0  0  0  0  0  0  0
  -11.4338  -20.9664   14.3653 C   0  0  0  0  0  0  0  0  0  0  0  0
  -10.9052  -21.2017   13.0342 N   0  0  0  0  0  0  0  0  0  0  0  0
  -10.7814  -22.4114   12.4013 C   0  0  0  0  0  0  0  0  0  0  0  0
  -10.2640  -22.2918   11.1953 N   0  0  0  0  0  0  0  0  0  0  0  0
  -10.0274  -20.9476   11.0424 C   0  0  0  0  0  0  0  0  0  0  0  0
  -10.4203  -20.2487   12.1733 C   0  0  0  0  0  0  0  0  0  0  0  0
  -10.3338  -18.9216   12.3641 N   0  0  0  0  0  0  0  0  0  0  0  0
   -9.8057  -18.2730   11.3024 C   0  0  0  0  0  0  0  0  0  0  0  0
   -9.3808  -18.8370   10.1545 N   0  0  0  0  0  0  0  0  0  0  0  0
   -9.4895  -20.1691   10.0244 C   0  0  0  0  0  0  0  0  0  0  0  0
   -9.0330  -20.6622    8.8349 O   0  0  0  0  0  0  0  0  0  0  0  0
   -9.7222  -16.8901   11.4793 N   0  0  0  0  0  0  0  0  0  0  0  0
   -8.5796  -16.1798   11.7761 C   0  0  0  0  0  0  0  0  0  0  0  0
   -7.4445  -16.6221   11.9131 O   0  0  0  0  0  0  0  0  0  0  0  0
   -8.8524  -14.7024   11.8973 C   0  0  0  0  0  0  0  0  0  0  0  0
  1  2  1  0
  2  3  1  0
  3  4  1  0
  4  5  2  0
  4  6  1  0
  6  7  1  0
  7  8  1  0
  7 17  1  0
  8  9  1  0
  8 14  1  0
  9 10  1  0
  9 16  1  0
 10 11  1  0
 11 12  1  0
 12 13  2  0
 12 14  1  0
 12 15  1  0
 16 17  1  0
 17 18  1  0
 18 19  1  0
 18 22  1  0
 19 20  2  0
 20 21  1  0
 21 22  2  0
 21 26  1  0
 22 23  1  0
 23 24  2  0
 24 25  1  0
 24 28  1  0
 25 26  2  0
 26 27  1  0
 28 29  1  0
 29 30  2  0
 29 31  1  0
M  END
>  <Gold.Gold.Protein.RotatedWaterAtoms>  (13) 


>  <Gold.Id.Protein>  (13) 


>  <Gold.PLP.Chemscore.CHOScore>  (13) 
0.0000

>  <Gold.PLP.Chemscore.Hbond>  (13) 
1.2080

>  <Gold.PLP.Chemscore.Internal.Correction>  (13) 
0.1232

>  <Gold.PLP.Chemscore.Metal>  (13) 
0.0000

>  <Gold.PLP.Fitness>  (13) 
47.7145

>  <Gold.PLP.PLP>  (13) 
-46.0218

>  <Gold.PLP.ligand.clash>  (13) 
0.0000

>  <Gold.PLP.ligand.torsion>  (13) 
1.0272

>  <Gold.PLP.part.buried>  (13) 
-2.2958

>  <Gold.PLP.part.hbond>  (13) 
-4.0214

>  <Gold.PLP.part.metal>  (13) 
0.0000

>  <Gold.PLP.part.nonpolar>  (13) 
-41.4699

>  <Gold.PLP.part.repulsive>  (13) 
0.9524

>  <Gold.Protein.RotatedAtoms>  (13) 


>  <Gold.Protein.RotatedTorsions>  (13) 


>  <Gold.Protein.RotatedWaterAtoms>  (13) 


>  <Gold.Version>  (13) 
5.3.0

>  <PLP.Chemscore.CHOScore>  (13) 


>  <PLP.Chemscore.Hbond>  (13) 


>  <PLP.Chemscore.Internal.Correction>  (13) 


>  <PLP.Chemscore.Metal>  (13) 


>  <PLP.Fitness>  (13) 


>  <PLP.PLP>  (13) 


>  <PLP.ligand.clash>  (13) 


>  <PLP.ligand.torsion>  (13) 


>  <PLP.part.buried>  (13) 


>  <PLP.part.hbond>  (13) 


>  <PLP.part.metal>  (13) 


>  <PLP.part.nonpolar>  (13) 


>  <PLP.part.repulsive>  (13) 


>  <RMSD>  (13) 
0.291955871297

>  <Torsion>  (13) 
171.923704933

>  <TorsionO>  (13) 
6.03609353985

>  <TorsionR>  (13) 
177.959798473

>  <Version>  (13) 


>  <product>  (13) 
72|Compound_26|Compounds_3D_F|sdf|12|dock4|1

>  <rmsd>  (13) 
-1

$$$$
193|32168_281|Aromatic_primary_amines_F|sdf|39|dock6|1
     RDKit          3D

 23 25  0  0  0  0  0  0  0  0999 V2000
   -7.8439  -12.1461   11.8919 C   0  0  0  0  0  0  0  0  0  0  0  0
   -8.5691  -13.4472   11.6781 C   0  0  0  0  0  0  0  0  0  0  0  0
   -9.7886  -13.4981   11.5208 O   0  0  0  0  0  0  0  0  0  0  0  0
   -7.7264  -14.5390   11.7020 N   0  0  0  0  0  0  0  0  0  0  0  0
   -8.1889  -15.8197   11.5323 C   0  0  0  0  0  0  0  0  0  0  0  0
   -9.4747  -16.2039   11.8163 N   0  0  0  0  0  0  0  0  0  0  0  0
   -9.5964  -17.5375   11.5379 C   0  0  0  0  0  0  0  0  0  0  0  0
  -10.6643  -18.4283   11.6415 C   0  0  0  0  0  0  0  0  0  0  0  0
  -10.4051  -19.7586   11.2778 C   0  0  0  0  0  0  0  0  0  0  0  0
   -9.1530  -20.1507   10.7795 C   0  0  0  0  0  0  0  0  0  0  0  0
   -8.1017  -19.2294   10.6839 C   0  0  0  0  0  0  0  0  0  0  0  0
   -8.3349  -17.9032   11.0783 C   0  0  0  0  0  0  0  0  0  0  0  0
   -7.4773  -16.8281   11.0838 N   0  0  0  0  0  0  0  0  0  0  0  0
   -8.8530  -21.7658   10.2429 Cl  0  0  0  0  0  0  0  0  0  0  0  0
  -11.4669  -20.6323   11.3734 O   0  0  0  0  0  0  0  0  0  0  0  0
  -12.5262  -20.4408   10.5053 C   0  0  0  0  0  0  0  0  0  0  0  0
  -13.3188  -19.2846   10.5304 C   0  0  0  0  0  0  0  0  0  0  0  0
  -14.3665  -19.1344    9.6224 C   0  0  0  0  0  0  0  0  0  0  0  0
  -14.6219  -20.1279    8.6796 C   0  0  0  0  0  0  0  0  0  0  0  0
  -13.8238  -21.2756    8.6345 C   0  0  0  0  0  0  0  0  0  0  0  0
  -12.7674  -21.4342    9.5416 C   0  0  0  0  0  0  0  0  0  0  0  0
  -11.7588  -22.8458    9.4996 Cl  0  0  0  0  0  0  0  0  0  0  0  0
  -14.1988  -22.4584    7.4296 Cl  0  0  0  0  0  0  0  0  0  0  0  0
  1  2  1  0
  2  3  2  0
  2  4  1  0
  4  5  1  0
  5  6  1  0
  5 13  2  0
  6  7  1  0
  7  8  2  0
  7 12  1  0
  8  9  1  0
  9 10  2  0
  9 15  1  0
 10 11  1  0
 10 14  1  0
 11 12  2  0
 12 13  1  0
 15 16  1  0
 16 17  2  0
 16 21  1  0
 17 18  1  0
 18 19  2  0
 19 20  1  0
 20 21  2  0
 20 23  1  0
 21 22  1  0
M  END
>  <Gold.Gold.Protein.RotatedWaterAtoms>  (14) 


>  <Gold.Id.Protein>  (14) 


>  <Gold.PLP.Chemscore.CHOScore>  (14) 
0.0000

>  <Gold.PLP.Chemscore.Hbond>  (14) 
1.0000

>  <Gold.PLP.Chemscore.Internal.Correction>  (14) 
0.0086

>  <Gold.PLP.Chemscore.Metal>  (14) 
0.0000

>  <Gold.PLP.Fitness>  (14) 
50.7139

>  <Gold.PLP.PLP>  (14) 
-48.1706

>  <Gold.PLP.ligand.clash>  (14) 
0.0000

>  <Gold.PLP.ligand.torsion>  (14) 
0.2327

>  <Gold.PLP.part.buried>  (14) 
-6.5205

>  <Gold.PLP.part.hbond>  (14) 
-2.0000

>  <Gold.PLP.part.metal>  (14) 
0.0000

>  <Gold.PLP.part.nonpolar>  (14) 
-39.3857

>  <Gold.PLP.part.repulsive>  (14) 
0.3298

>  <Gold.Protein.RotatedAtoms>  (14) 


>  <Gold.Protein.RotatedTorsions>  (14) 


>  <Gold.Protein.RotatedWaterAtoms>  (14) 


>  <Gold.Version>  (14) 
5.3.0

>  <PLP.Chemscore.CHOScore>  (14) 


>  <PLP.Chemscore.Hbond>  (14) 


>  <PLP.Chemscore.Internal.Correction>  (14) 


>  <PLP.Chemscore.Metal>  (14) 


>  <PLP.Fitness>  (14) 


>  <PLP.PLP>  (14) 


>  <PLP.ligand.clash>  (14) 


>  <PLP.ligand.torsion>  (14) 


>  <PLP.part.buried>  (14) 


>  <PLP.part.hbond>  (14) 


>  <PLP.part.metal>  (14) 


>  <PLP.part.nonpolar>  (14) 


>  <PLP.part.repulsive>  (14) 


>  <RMSD>  (14) 
0.439733510035

>  <Torsion>  (14) 
177.672185574

>  <TorsionO>  (14) 
4.31728583372

>  <TorsionR>  (14) 
173.35489974

>  <Version>  (14) 


>  <product>  (14) 
72|Compound_26|Compounds_3D_F|sdf|12|dock4|1

>  <rmsd>  (14) 
-1

$$$$
67|Compound_25|Compounds_3D_F|sdf|11|dock5|1
     RDKit          3D

 10  9  0  0  0  0  0  0  0  0999 V2000
   -6.1944  -10.3952   12.6425 O   0  0  0  0  0  0  0  0  0  0  0  0
   -6.5650  -11.6171   12.2311 C   0  0  0  0  0  0  0  0  0  0  0  0
   -7.7068  -11.8204   11.8898 O   0  0  0  0  0  0  0  0  0  0  0  0
   -5.5579  -12.7379   12.1946 C   0  0  0  0  0  0  0  0  0  0  0  0
   -4.9565  -12.8815   13.4835 O   0  0  0  0  0  0  0  0  0  0  0  0
   -6.2610  -14.0418   11.8115 C   0  0  0  0  0  0  0  0  0  0  0  0
   -5.2586  -15.0732   11.5319 N   0  0  0  0  0  0  0  0  0  0  0  0
   -5.2594  -16.2232   12.2347 C   0  0  0  0  0  0  0  0  0  0  0  0
   -6.0903  -16.4034   13.0992 O   0  0  0  0  0  0  0  0  0  0  0  0
   -4.1858  -17.3277   11.9347 B   0  0  0  0  0  0  0  0  0  0  0  0
  1  2  1  0
  2  3  2  0
  2  4  1  0
  4  5  1  0
  4  6  1  0
  6  7  1  0
  7  8  1  0
  8  9  2  0
  8 10  1  0
M  END
>  <Gold.Gold.Protein.RotatedWaterAtoms>  (15) 


>  <Gold.Id.Protein>  (15) 


>  <Gold.PLP.Chemscore.CHOScore>  (15) 
0.0000

>  <Gold.PLP.Chemscore.Hbond>  (15) 
1.3088

>  <Gold.PLP.Chemscore.Internal.Correction>  (15) 
0.0006

>  <Gold.PLP.Chemscore.Metal>  (15) 
0.0000

>  <Gold.PLP.Fitness>  (15) 
32.8658

>  <Gold.PLP.PLP>  (15) 
-29.1485

>  <Gold.PLP.ligand.clash>  (15) 
0.0000

>  <Gold.PLP.ligand.torsion>  (15) 
0.1048

>  <Gold.PLP.part.buried>  (15) 
-7.1062

>  <Gold.PLP.part.hbond>  (15) 
-4.7802

>  <Gold.PLP.part.metal>  (15) 
0.0000

>  <Gold.PLP.part.nonpolar>  (15) 
-17.3218

>  <Gold.PLP.part.repulsive>  (15) 
0.2607

>  <Gold.Protein.RotatedAtoms>  (15) 


>  <Gold.Protein.RotatedTorsions>  (15) 


>  <Gold.Protein.RotatedWaterAtoms>  (15) 


>  <Gold.Version>  (15) 
5.3.0

>  <PLP.Chemscore.CHOScore>  (15) 


>  <PLP.Chemscore.Hbond>  (15) 


>  <PLP.Chemscore.Internal.Correction>  (15) 


>  <PLP.Chemscore.Metal>  (15) 


>  <PLP.Fitness>  (15) 


>  <PLP.PLP>  (15) 


>  <PLP.ligand.clash>  (15) 


>  <PLP.ligand.torsion>  (15) 


>  <PLP.part.buried>  (15) 


>  <PLP.part.hbond>  (15) 


>  <PLP.part.metal>  (15) 


>  <PLP.part.nonpolar>  (15) 


>  <PLP.part.repulsive>  (15) 


>  <Version>  (15) 


$$$$
94|664022_40|Aromatic_carboxylic_acids_F|sdf|24|dock1|1
     RDKit          3D

 12 12  0  0  0  0  0  0  0  0999 V2000
   -8.2596  -17.1212   11.4595 C   0  0  0  0  0  0  0  0  0  0  0  0
   -7.6366  -15.8367   11.6688 N   0  0  0  0  0  0  0  0  0  0  0  0
   -8.3409  -14.6553   11.5719 C   0  0  0  0  0  0  0  0  0  0  0  0
   -9.5296  -14.5547   11.2978 O   0  0  0  0  0  0  0  0  0  0  0  0
   -7.5420  -13.4431   11.8503 C   0  0  0  0  0  0  0  0  0  0  0  0
   -8.1627  -12.1983   11.6738 C   0  0  0  0  0  0  0  0  0  0  0  0
   -7.4390  -11.0301   11.9055 C   0  0  0  0  0  0  0  0  0  0  0  0
   -6.1069  -11.0910   12.3103 C   0  0  0  0  0  0  0  0  0  0  0  0
   -5.4897  -12.3324   12.4853 C   0  0  0  0  0  0  0  0  0  0  0  0
   -6.2035  -13.5136   12.2549 C   0  0  0  0  0  0  0  0  0  0  0  0
   -5.3062  -15.1564   12.5638 Br  0  0  0  0  0  0  0  0  0  0  0  0
   -8.1960   -9.5005   11.6887 Cl  0  0  0  0  0  0  0  0  0  0  0  0
  1  2  1  0
  2  3  1  0
  3  4  2  0
  3  5  1  0
  5  6  2  0
  5 10  1  0
  6  7  1  0
  7  8  2  0
  7 12  1  0
  8  9  1  0
  9 10  2  0
 10 11  1  0
M  END
>  <Gold.Gold.Protein.RotatedWaterAtoms>  (16) 


>  <Gold.Id.Protein>  (16) 


>  <Gold.PLP.Chemscore.CHOScore>  (16) 
0.0000

>  <Gold.PLP.Chemscore.Hbond>  (16) 
0.4160

>  <Gold.PLP.Chemscore.Internal.Correction>  (16) 
0.0004

>  <Gold.PLP.Chemscore.Metal>  (16) 
0.0000

>  <Gold.PLP.Fitness>  (16) 
48.9046

>  <Gold.PLP.PLP>  (16) 
-47.6744

>  <Gold.PLP.ligand.clash>  (16) 
0.0000

>  <Gold.PLP.ligand.torsion>  (16) 
0.0091

>  <Gold.PLP.part.buried>  (16) 
-7.3578

>  <Gold.PLP.part.hbond>  (16) 
-0.5127

>  <Gold.PLP.part.metal>  (16) 
0.0000

>  <Gold.PLP.part.nonpolar>  (16) 
-40.3098

>  <Gold.PLP.part.repulsive>  (16) 
0.1684

>  <Gold.Protein.RotatedAtoms>  (16) 


>  <Gold.Protein.RotatedTorsions>  (16) 


>  <Gold.Protein.RotatedWaterAtoms>  (16) 


>  <Gold.Version>  (16) 
5.3.0

>  <PLP.Chemscore.CHOScore>  (16) 


>  <PLP.Chemscore.Hbond>  (16) 


>  <PLP.Chemscore.Internal.Correction>  (16) 


>  <PLP.Chemscore.Metal>  (16) 


>  <PLP.Fitness>  (16) 


>  <PLP.PLP>  (16) 


>  <PLP.ligand.clash>  (16) 


>  <PLP.ligand.torsion>  (16) 


>  <PLP.part.buried>  (16) 


>  <PLP.part.hbond>  (16) 


>  <PLP.part.metal>  (16) 


>  <PLP.part.nonpolar>  (16) 


>  <PLP.part.repulsive>  (16) 


>  <RMSD>  (16) 
0.30972197429

>  <Torsion>  (16) 
172.929186758

>  <TorsionO>  (16) 
24.4968065243

>  <TorsionR>  (16) 
162.574006718

>  <Version>  (16) 


>  <product>  (16) 
67|Compound_25|Compounds_3D_F|sdf|11|dock5|1

>  <rmsd>  (16) 
-1

$$$$
110|565385_49|Aromatic_carboxylic_acids_F|sdf|29|dock1|1
     RDKit          3D

 13 13  0  0  0  0  0  0  0  0999 V2000
  -10.1118  -17.9021   11.6320 C   0  0  0  0  0  0  0  0  0  0  0  0
   -9.7537  -16.5043   11.6546 N   0  0  0  0  0  0  0  0  0  0  0  0
   -8.4330  -16.1187   11.7930 C   0  0  0  0  0  0  0  0  0  0  0  0
   -7.5159  -16.9298   11.9008 O   0  0  0  0  0  0  0  0  0  0  0  0
   -8.1234  -14.6552   11.8105 C   0  0  0  0  0  0  0  0  0  0  0  0
   -9.0636  -13.6551   11.5375 C   0  0  0  0  0  0  0  0  0  0  0  0
   -8.6966  -12.3009   11.5726 C   0  0  0  0  0  0  0  0  0  0  0  0
   -7.3879  -11.9195   11.8809 C   0  0  0  0  0  0  0  0  0  0  0  0
   -6.4486  -12.9235   12.1551 C   0  0  0  0  0  0  0  0  0  0  0  0
   -6.8098  -14.2750   12.1207 C   0  0  0  0  0  0  0  0  0  0  0  0
   -4.6444  -12.5025   12.5849 Br  0  0  0  0  0  0  0  0  0  0  0  0
   -6.9476  -10.6242   11.9372 O   0  0  0  0  0  0  0  0  0  0  0  0
   -7.9020   -9.5910   11.7256 C   0  0  0  0  0  0  0  0  0  0  0  0
  1  2  1  0
  2  3  1  0
  3  4  2  0
  3  5  1  0
  5  6  2  0
  5 10  1  0
  6  7  1  0
  7  8  2  0
  8  9  1  0
  8 12  1  0
  9 10  2  0
  9 11  1  0
 12 13  1  0
M  END
>  <Gold.Gold.Protein.RotatedWaterAtoms>  (17) 


>  <Gold.Id.Protein>  (17) 


>  <Gold.PLP.Chemscore.CHOScore>  (17) 
0.0000

>  <Gold.PLP.Chemscore.Hbond>  (17) 
1.0000

>  <Gold.PLP.Chemscore.Internal.Correction>  (17) 
0.0000

>  <Gold.PLP.Chemscore.Metal>  (17) 
0.0000

>  <Gold.PLP.Fitness>  (17) 
43.9775

>  <Gold.PLP.PLP>  (17) 
-41.0517

>  <Gold.PLP.ligand.clash>  (17) 
0.0000

>  <Gold.PLP.ligand.torsion>  (17) 
0.0371

>  <Gold.PLP.part.buried>  (17) 
-3.7367

>  <Gold.PLP.part.hbond>  (17) 
-1.0000

>  <Gold.PLP.part.metal>  (17) 
0.0000

>  <Gold.PLP.part.nonpolar>  (17) 
-36.7483

>  <Gold.PLP.part.repulsive>  (17) 
0.4054

>  <Gold.Protein.RotatedAtoms>  (17) 


>  <Gold.Protein.RotatedTorsions>  (17) 


>  <Gold.Protein.RotatedWaterAtoms>  (17) 


>  <Gold.Version>  (17) 
5.3.0

>  <PLP.Chemscore.CHOScore>  (17) 


>  <PLP.Chemscore.Hbond>  (17) 


>  <PLP.Chemscore.Internal.Correction>  (17) 


>  <PLP.Chemscore.Metal>  (17) 


>  <PLP.Fitness>  (17) 


>  <PLP.PLP>  (17) 


>  <PLP.ligand.clash>  (17) 


>  <PLP.ligand.torsion>  (17) 


>  <PLP.part.buried>  (17) 


>  <PLP.part.hbond>  (17) 


>  <PLP.part.metal>  (17) 


>  <PLP.part.nonpolar>  (17) 


>  <PLP.part.repulsive>  (17) 


>  <RMSD>  (17) 
0.319376411377

>  <Torsion>  (17) 
169.460450784

>  <TorsionO>  (17) 
9.7963905484

>  <TorsionR>  (17) 
179.256841332

>  <Version>  (17) 


>  <product>  (17) 
67|Compound_25|Compounds_3D_F|sdf|11|dock5|1

>  <rmsd>  (17) 
-1

$$$$
128|137677_56|Aromatic_carboxylic_acids_F|sdf|33|dock1|1
     RDKit          3D

 11 11  0  0  0  0  0  0  0  0999 V2000
   -8.6116  -16.1544   11.8887 C   0  0  0  0  0  0  0  0  0  0  0  0
   -7.9978  -14.8484   11.9215 N   0  0  0  0  0  0  0  0  0  0  0  0
   -8.7778  -13.7008   11.8756 C   0  0  0  0  0  0  0  0  0  0  0  0
  -10.0002  -13.7896   11.8139 O   0  0  0  0  0  0  0  0  0  0  0  0
   -8.0808  -12.3609   11.9017 C   0  0  0  0  0  0  0  0  0  0  0  0
   -8.7916  -11.1851   11.5813 C   0  0  0  0  0  0  0  0  0  0  0  0
   -8.1781   -9.9267   11.5989 C   0  0  0  0  0  0  0  0  0  0  0  0
   -6.8391   -9.8089   11.9369 C   0  0  0  0  0  0  0  0  0  0  0  0
   -6.1124  -10.9502   12.2575 C   0  0  0  0  0  0  0  0  0  0  0  0
   -6.7171  -12.2196   12.2428 C   0  0  0  0  0  0  0  0  0  0  0  0
   -5.5419  -13.6455   12.7121 Br  0  0  0  0  0  0  0  0  0  0  0  0
  1  2  1  0
  2  3  1  0
  3  4  2  0
  3  5  1  0
  5  6  2  0
  5 10  1  0
  6  7  1  0
  7  8  2  0
  8  9  1  0
  9 10  2  0
 10 11  1  0
M  END
>  <Gold.Gold.Protein.RotatedWaterAtoms>  (18) 


>  <Gold.Id.Protein>  (18) 


>  <Gold.PLP.Chemscore.CHOScore>  (18) 
0.0000

>  <Gold.PLP.Chemscore.Hbond>  (18) 
1.0000

>  <Gold.PLP.Chemscore.Internal.Correction>  (18) 
0.0000

>  <Gold.PLP.Chemscore.Metal>  (18) 
0.0000

>  <Gold.PLP.Fitness>  (18) 
45.2899

>  <Gold.PLP.PLP>  (18) 
-42.4444

>  <Gold.PLP.ligand.clash>  (18) 
0.0000

>  <Gold.PLP.ligand.torsion>  (18) 
0.0772

>  <Gold.PLP.part.buried>  (18) 
-6.4690

>  <Gold.PLP.part.hbond>  (18) 
-0.6863

>  <Gold.PLP.part.metal>  (18) 
0.0000

>  <Gold.PLP.part.nonpolar>  (18) 
-34.8280

>  <Gold.PLP.part.repulsive>  (18) 
0.1963

>  <Gold.Protein.RotatedAtoms>  (18) 


>  <Gold.Protein.RotatedTorsions>  (18) 


>  <Gold.Protein.RotatedWaterAtoms>  (18) 


>  <Gold.Version>  (18) 
5.3.0

>  <PLP.Chemscore.CHOScore>  (18) 


>  <PLP.Chemscore.Hbond>  (18) 


>  <PLP.Chemscore.Internal.Correction>  (18) 


>  <PLP.Chemscore.Metal>  (18) 


>  <PLP.Fitness>  (18) 


>  <PLP.PLP>  (18) 


>  <PLP.ligand.clash>  (18) 


>  <PLP.ligand.torsion>  (18) 


>  <PLP.part.buried>  (18) 


>  <PLP.part.hbond>  (18) 


>  <PLP.part.metal>  (18) 


>  <PLP.part.nonpolar>  (18) 


>  <PLP.part.repulsive>  (18) 


>  <RMSD>  (18) 
0.428070490903

>  <Torsion>  (18) 
152.444048788

>  <TorsionO>  (18) 
39.0580871276

>  <TorsionR>  (18) 
168.497864085

>  <Version>  (18) 


>  <product>  (18) 
67|Compound_25|Compounds_3D_F|sdf|11|dock5|1

>  <rmsd>  (18) 
-1

$$$$
974|750794_1404|Aromatic_primary_amines_F|sdf|194|dock3|1
     RDKit          3D

 14 14  0  0  0  0  0  0  0  0999 V2000
  -13.6355  -18.1936    9.4145 C   0  0  0  0  0  0  0  0  0  0  0  0
  -13.2544  -19.4497   10.1732 C   0  0  0  0  0  0  0  0  0  0  0  0
  -11.8731  -19.3506   10.5383 O   0  0  0  0  0  0  0  0  0  0  0  0
  -11.6148  -18.5085   11.5823 C   0  0  0  0  0  0  0  0  0  0  0  0
  -12.3947  -18.2810   12.5004 O   0  0  0  0  0  0  0  0  0  0  0  0
  -10.3031  -17.8985   11.4902 C   0  0  0  0  0  0  0  0  0  0  0  0
   -9.1673  -18.4974   10.9931 C   0  0  0  0  0  0  0  0  0  0  0  0
   -8.1448  -17.6055   11.0758 O   0  0  0  0  0  0  0  0  0  0  0  0
   -8.7110  -16.4917   11.6237 C   0  0  0  0  0  0  0  0  0  0  0  0
   -9.9933  -16.6110   11.8915 N   0  0  0  0  0  0  0  0  0  0  0  0
   -7.9611  -15.3718   11.8549 N   0  0  0  0  0  0  0  0  0  0  0  0
   -8.5046  -14.1249   12.0676 C   0  0  0  0  0  0  0  0  0  0  0  0
   -9.6950  -13.8313   12.1035 O   0  0  0  0  0  0  0  0  0  0  0  0
   -7.4448  -13.0785   12.3021 C   0  0  0  0  0  0  0  0  0  0  0  0
  1  2  1  0
  2  3  1  0
  3  4  1  0
  4  5  2  0
  4  6  1  0
  6  7  2  0
  6 10  1  0
  7  8  1  0
  8  9  1  0
  9 10  2  0
  9 11  1  0
 11 12  1  0
 12 13  2  0
 12 14  1  0
M  END
>  <Gold.Gold.Protein.RotatedWaterAtoms>  (19) 


>  <Gold.Id.Protein>  (19) 


>  <Gold.PLP.Chemscore.CHOScore>  (19) 
0.0000

>  <Gold.PLP.Chemscore.Hbond>  (19) 
2.0000

>  <Gold.PLP.Chemscore.Internal.Correction>  (19) 
0.0053

>  <Gold.PLP.Chemscore.Metal>  (19) 
0.0000

>  <Gold.PLP.Fitness>  (19) 
36.8047

>  <Gold.PLP.PLP>  (19) 
-32.7996

>  <Gold.PLP.ligand.clash>  (19) 
0.0000

>  <Gold.PLP.ligand.torsion>  (19) 
1.0001

>  <Gold.PLP.part.buried>  (19) 
-6.5206

>  <Gold.PLP.part.hbond>  (19) 
-2.9156

>  <Gold.PLP.part.metal>  (19) 
0.0000

>  <Gold.PLP.part.nonpolar>  (19) 
-23.4080

>  <Gold.PLP.part.repulsive>  (19) 
0.3100

>  <Gold.Protein.RotatedAtoms>  (19) 


>  <Gold.Protein.RotatedTorsions>  (19) 


>  <Gold.Protein.RotatedWaterAtoms>  (19) 


>  <Gold.Version>  (19) 
5.3.0

>  <PLP.Chemscore.CHOScore>  (19) 


>  <PLP.Chemscore.Hbond>  (19) 


>  <PLP.Chemscore.Internal.Correction>  (19) 


>  <PLP.Chemscore.Metal>  (19) 


>  <PLP.Fitness>  (19) 


>  <PLP.PLP>  (19) 


>  <PLP.ligand.clash>  (19) 


>  <PLP.ligand.torsion>  (19) 


>  <PLP.part.buried>  (19) 


>  <PLP.part.hbond>  (19) 


>  <PLP.part.metal>  (19) 


>  <PLP.part.nonpolar>  (19) 


>  <PLP.part.repulsive>  (19) 


>  <RMSD>  (19) 
0.499949349045

>  <Torsion>  (19) 
159.973716791

>  <TorsionO>  (19) 
19.1052109979

>  <TorsionR>  (19) 
179.078927789

>  <Version>  (19) 


>  <product>  (19) 
67|Compound_25|Compounds_3D_F|sdf|11|dock5|1

>  <rmsd>  (19) 
-1

$$$$
1884|M3006_1781|Aromatic_primary_amines_F|sdf|361|dock3|1
     RDKit          3D

 31 34  0  0  0  0  0  0  0  0999 V2000
  -14.4210  -19.8971    8.7934 C   0  0  0  0  0  0  0  0  0  0  0  0
  -13.9762  -19.4927   10.1894 C   0  0  0  0  0  0  0  0  0  0  0  0
  -14.1356  -20.6409   11.1817 C   0  0  0  0  0  0  0  0  0  0  0  0
  -13.5197  -20.3070   12.5189 C   0  0  0  0  0  0  0  0  0  0  0  0
  -12.9307  -19.2724   12.7954 O   0  0  0  0  0  0  0  0  0  0  0  0
  -13.7110  -21.3451   13.3845 O   0  0  0  0  0  0  0  0  0  0  0  0
  -12.9425  -21.2698   14.5900 C   0  0  0  0  0  0  0  0  0  0  0  0
  -12.8849  -22.6189   15.2889 C   0  0  0  0  0  0  0  0  0  0  0  0
  -11.6552  -22.4172   16.1494 C   0  0  0  0  0  0  0  0  0  0  0  0
  -11.2420  -23.7410   16.7624 C   0  0  0  0  0  0  0  0  0  0  0  0
  -12.3024  -24.2223   17.5862 O   0  0  0  0  0  0  0  0  0  0  0  0
  -13.7888  -24.3384   16.9603 P   0  0  0  0  0  0  0  0  0  0  0  0
  -14.8775  -24.6795   17.9243 O   0  0  0  0  0  0  0  0  0  0  0  0
  -13.9839  -22.9641   16.1174 O   0  0  0  0  0  0  0  0  0  0  0  0
  -13.5991  -25.4435   15.8075 O   0  0  0  0  0  0  0  0  0  0  0  0
  -10.6922  -21.8161   15.2889 O   0  0  0  0  0  0  0  0  0  0  0  0
  -11.4338  -20.9664   14.3653 C   0  0  0  0  0  0  0  0  0  0  0  0
  -10.9052  -21.2017   13.0342 N   0  0  0  0  0  0  0  0  0  0  0  0
  -10.7814  -22.4114   12.4013 C   0  0  0  0  0  0  0  0  0  0  0  0
  -10.2640  -22.2918   11.1953 N   0  0  0  0  0  0  0  0  0  0  0  0
  -10.0274  -20.9476   11.0424 C   0  0  0  0  0  0  0  0  0  0  0  0
  -10.4203  -20.2487   12.1733 C   0  0  0  0  0  0  0  0  0  0  0  0
  -10.3338  -18.9216   12.3641 N   0  0  0  0  0  0  0  0  0  0  0  0
   -9.8057  -18.2730   11.3024 C   0  0  0  0  0  0  0  0  0  0  0  0
   -9.3808  -18.8370   10.1545 N   0  0  0  0  0  0  0  0  0  0  0  0
   -9.4895  -20.1691   10.0244 C   0  0  0  0  0  0  0  0  0  0  0  0
   -9.0330  -20.6622    8.8349 O   0  0  0  0  0  0  0  0  0  0  0  0
   -9.7222  -16.8901   11.4793 N   0  0  0  0  0  0  0  0  0  0  0  0
   -8.5796  -16.1798   11.7761 C   0  0  0  0  0  0  0  0  0  0  0  0
   -7.4445  -16.6221   11.9131 O   0  0  0  0  0  0  0  0  0  0  0  0
   -8.8524  -14.7024   11.8973 C   0  0  0  0  0  0  0  0  0  0  0  0
  1  2  1  0
  2  3  1  0
  3  4  1  0
  4  5  2  0
  4  6  1  0
  6  7  1  0
  7  8  1  0
  7 17  1  0
  8  9  1  0
  8 14  1  0
  9 10  1  0
  9 16  1  0
 10 11  1  0
 11 12  1  0
 12 13  2  0
 12 14  1  0
 12 15  1  0
 16 17  1  0
 17 18  1  0
 18 19  1  0
 18 22  1  0
 19 20  2  0
 20 21  1  0
 21 22  2  0
 21 26  1  0
 22 23  1  0
 23 24  2  0
 24 25  1  0
 24 28  1  0
 25 26  2  0
 26 27  1  0
 28 29  1  0
 29 30  2  0
 29 31  1  0
M  END
>  <Gold.Gold.Protein.RotatedWaterAtoms>  (20) 


>  <Gold.Id.Protein>  (20) 


>  <Gold.PLP.Chemscore.CHOScore>  (20) 
0.0000

>  <Gold.PLP.Chemscore.Hbond>  (20) 
1.2080

>  <Gold.PLP.Chemscore.Internal.Correction>  (20) 
0.1232

>  <Gold.PLP.Chemscore.Metal>  (20) 
0.0000

>  <Gold.PLP.Fitness>  (20) 
47.7145

>  <Gold.PLP.PLP>  (20) 
-46.0218

>  <Gold.PLP.ligand.clash>  (20) 
0.0000

>  <Gold.PLP.ligand.torsion>  (20) 
1.0272

>  <Gold.PLP.part.buried>  (20) 
-2.2958

>  <Gold.PLP.part.hbond>  (20) 
-4.0214

>  <Gold.PLP.part.metal>  (20) 
0.0000

>  <Gold.PLP.part.nonpolar>  (20) 
-41.4699

>  <Gold.PLP.part.repulsive>  (20) 
0.9524

>  <Gold.Protein.RotatedAtoms>  (20) 


>  <Gold.Protein.RotatedTorsions>  (20) 


>  <Gold.Protein.RotatedWaterAtoms>  (20) 


>  <Gold.Version>  (20) 
5.3.0

>  <PLP.Chemscore.CHOScore>  (20) 


>  <PLP.Chemscore.Hbond>  (20) 


>  <PLP.Chemscore.Internal.Correction>  (20) 


>  <PLP.Chemscore.Metal>  (20) 


>  <PLP.Fitness>  (20) 


>  <PLP.PLP>  (20) 


>  <PLP.ligand.clash>  (20) 


>  <PLP.ligand.torsion>  (20) 


>  <PLP.part.buried>  (20) 


>  <PLP.part.hbond>  (20) 


>  <PLP.part.metal>  (20) 


>  <PLP.part.nonpolar>  (20) 


>  <PLP.part.repulsive>  (20) 


>  <RMSD>  (20) 
0.291955871297

>  <Torsion>  (20) 
171.923704933

>  <TorsionO>  (20) 
6.03609353985

>  <TorsionR>  (20) 
177.959798473

>  <Version>  (20) 


>  <product>  (20) 
67|Compound_25|Compounds_3D_F|sdf|11|dock5|1

>  <rmsd>  (20) 
-1

$$$$
193|32168_281|Aromatic_primary_amines_F|sdf|39|dock6|1
     RDKit          3D

 23 25  0  0  0  0  0  0  0  0999 V2000
   -7.8439  -12.1461   11.8919 C   0  0  0  0  0  0  0  0  0  0  0  0
   -8.5691  -13.4472   11.6781 C   0  0  0  0  0  0  0  0  0  0  0  0
   -9.7886  -13.4981   11.5208 O   0  0  0  0  0  0  0  0  0  0  0  0
   -7.7264  -14.5390   11.7020 N   0  0  0  0  0  0  0  0  0  0  0  0
   -8.1889  -15.8197   11.5323 C   0  0  0  0  0  0  0  0  0  0  0  0
   -9.4747  -16.2039   11.8163 N   0  0  0  0  0  0  0  0  0  0  0  0
   -9.5964  -17.5375   11.5379 C   0  0  0  0  0  0  0  0  0  0  0  0
  -10.6643  -18.4283   11.6415 C   0  0  0  0  0  0  0  0  0  0  0  0
  -10.4051  -19.7586   11.2778 C   0  0  0  0  0  0  0  0  0  0  0  0
   -9.1530  -20.1507   10.7795 C   0  0  0  0  0  0  0  0  0  0  0  0
   -8.1017  -19.2294   10.6839 C   0  0  0  0  0  0  0  0  0  0  0  0
   -8.3349  -17.9032   11.0783 C   0  0  0  0  0  0  0  0  0  0  0  0
   -7.4773  -16.8281   11.0838 N   0  0  0  0  0  0  0  0  0  0  0  0
   -8.8530  -21.7658   10.2429 Cl  0  0  0  0  0  0  0  0  0  0  0  0
  -11.4669  -20.6323   11.3734 O   0  0  0  0  0  0  0  0  0  0  0  0
  -12.5262  -20.4408   10.5053 C   0  0  0  0  0  0  0  0  0  0  0  0
  -13.3188  -19.2846   10.5304 C   0  0  0  0  0  0  0  0  0  0  0  0
  -14.3665  -19.1344    9.6224 C   0  0  0  0  0  0  0  0  0  0  0  0
  -14.6219  -20.1279    8.6796 C   0  0  0  0  0  0  0  0  0  0  0  0
  -13.8238  -21.2756    8.6345 C   0  0  0  0  0  0  0  0  0  0  0  0
  -12.7674  -21.4342    9.5416 C   0  0  0  0  0  0  0  0  0  0  0  0
  -11.7588  -22.8458    9.4996 Cl  0  0  0  0  0  0  0  0  0  0  0  0
  -14.1988  -22.4584    7.4296 Cl  0  0  0  0  0  0  0  0  0  0  0  0
  1  2  1  0
  2  3  2  0
  2  4  1  0
  4  5  1  0
  5  6  1  0
  5 13  2  0
  6  7  1  0
  7  8  2  0
  7 12  1  0
  8  9  1  0
  9 10  2  0
  9 15  1  0
 10 11  1  0
 10 14  1  0
 11 12  2  0
 12 13  1  0
 15 16  1  0
 16 17  2  0
 16 21  1  0
 17 18  1  0
 18 19  2  0
 19 20  1  0
 20 21  2  0
 20 23  1  0
 21 22  1  0
M  END
>  <Gold.Gold.Protein.RotatedWaterAtoms>  (21) 


>  <Gold.Id.Protein>  (21) 


>  <Gold.PLP.Chemscore.CHOScore>  (21) 
0.0000

>  <Gold.PLP.Chemscore.Hbond>  (21) 
1.0000

>  <Gold.PLP.Chemscore.Internal.Correction>  (21) 
0.0086

>  <Gold.PLP.Chemscore.Metal>  (21) 
0.0000

>  <Gold.PLP.Fitness>  (21) 
50.7139

>  <Gold.PLP.PLP>  (21) 
-48.1706

>  <Gold.PLP.ligand.clash>  (21) 
0.0000

>  <Gold.PLP.ligand.torsion>  (21) 
0.2327

>  <Gold.PLP.part.buried>  (21) 
-6.5205

>  <Gold.PLP.part.hbond>  (21) 
-2.0000

>  <Gold.PLP.part.metal>  (21) 
0.0000

>  <Gold.PLP.part.nonpolar>  (21) 
-39.3857

>  <Gold.PLP.part.repulsive>  (21) 
0.3298

>  <Gold.Protein.RotatedAtoms>  (21) 


>  <Gold.Protein.RotatedTorsions>  (21) 


>  <Gold.Protein.RotatedWaterAtoms>  (21) 


>  <Gold.Version>  (21) 
5.3.0

>  <PLP.Chemscore.CHOScore>  (21) 


>  <PLP.Chemscore.Hbond>  (21) 


>  <PLP.Chemscore.Internal.Correction>  (21) 


>  <PLP.Chemscore.Metal>  (21) 


>  <PLP.Fitness>  (21) 


>  <PLP.PLP>  (21) 


>  <PLP.ligand.clash>  (21) 


>  <PLP.ligand.torsion>  (21) 


>  <PLP.part.buried>  (21) 


>  <PLP.part.hbond>  (21) 


>  <PLP.part.metal>  (21) 


>  <PLP.part.nonpolar>  (21) 


>  <PLP.part.repulsive>  (21) 


>  <RMSD>  (21) 
0.439733510035

>  <Torsion>  (21) 
177.672185574

>  <TorsionO>  (21) 
4.31728583372

>  <TorsionR>  (21) 
173.35489974

>  <Version>  (21) 


>  <product>  (21) 
67|Compound_25|Compounds_3D_F|sdf|11|dock5|1

>  <rmsd>  (21) 
-1

$$$$
12|Compound_8|Compounds_3D_F|sdf|4|dock2|1
     RDKit          3D

  8  7  0  0  0  0  0  0  0  0999 V2000
  -10.2415  -14.3162   12.7869 O   0  0  0  0  0  0  0  0  0  0  0  0
   -9.3120  -13.4028   12.2013 C   0  0  0  0  0  0  0  0  0  0  0  0
   -8.1393  -14.1815   11.6028 C   0  0  0  0  0  0  0  0  0  0  0  0
   -8.4180  -14.4771   10.1949 N   0  0  0  0  0  0  0  0  0  0  0  0
   -7.6338  -15.3407    9.5191 C   0  0  0  0  0  0  0  0  0  0  0  0
   -6.6986  -15.8729   10.0775 O   0  0  0  0  0  0  0  0  0  0  0  0
   -7.9322  -15.6566    8.0111 B   0  0  0  0  0  0  0  0  0  0  0  0
   -6.8642  -13.3421   11.7051 C   0  0  0  0  0  0  0  0  0  0  0  0
  1  2  1  0
  2  3  1  0
  3  4  1  0
  3  8  1  0
  4  5  1  0
  5  6  2  0
  5  7  1  0
M  END
>  <Gold.Gold.Protein.RotatedWaterAtoms>  (22) 


>  <Gold.Id.Protein>  (22) 


>  <Gold.PLP.Chemscore.CHOScore>  (22) 
0.0000

>  <Gold.PLP.Chemscore.Hbond>  (22) 
2.9766

>  <Gold.PLP.Chemscore.Internal.Correction>  (22) 
0.0000

>  <Gold.PLP.Chemscore.Metal>  (22) 
0.0000

>  <Gold.PLP.Fitness>  (22) 
30.5708

>  <Gold.PLP.PLP>  (22) 
-22.6857

>  <Gold.PLP.ligand.clash>  (22) 
0.0000

>  <Gold.PLP.ligand.torsion>  (22) 
0.5224

>  <Gold.PLP.part.buried>  (22) 
-3.6451

>  <Gold.PLP.part.hbond>  (22) 
-4.0000

>  <Gold.PLP.part.metal>  (22) 
0.0000

>  <Gold.PLP.part.nonpolar>  (22) 
-14.3517

>  <Gold.PLP.part.repulsive>  (22) 
0.1755

>  <Gold.Protein.RotatedAtoms>  (22) 


>  <Gold.Protein.RotatedTorsions>  (22) 


>  <Gold.Protein.RotatedWaterAtoms>  (22) 


>  <Gold.Version>  (22) 
5.3.0

>  <PLP.Chemscore.CHOScore>  (22) 


>  <PLP.Chemscore.Hbond>  (22) 


>  <PLP.Chemscore.Internal.Correction>  (22) 


>  <PLP.Chemscore.Metal>  (22) 


>  <PLP.Fitness>  (22) 


>  <PLP.PLP>  (22) 


>  <PLP.ligand.clash>  (22) 


>  <PLP.ligand.torsion>  (22) 


>  <PLP.part.buried>  (22) 


>  <PLP.part.hbond>  (22) 


>  <PLP.part.metal>  (22) 


>  <PLP.part.nonpolar>  (22) 


>  <PLP.part.repulsive>  (22) 


>  <Version>  (22) 


$$$$
94|664022_40|Aromatic_carboxylic_acids_F|sdf|24|dock1|1
     RDKit          3D

 12 12  0  0  0  0  0  0  0  0999 V2000
   -8.2596  -17.1212   11.4595 C   0  0  0  0  0  0  0  0  0  0  0  0
   -7.6366  -15.8367   11.6688 N   0  0  0  0  0  0  0  0  0  0  0  0
   -8.3409  -14.6553   11.5719 C   0  0  0  0  0  0  0  0  0  0  0  0
   -9.5296  -14.5547   11.2978 O   0  0  0  0  0  0  0  0  0  0  0  0
   -7.5420  -13.4431   11.8503 C   0  0  0  0  0  0  0  0  0  0  0  0
   -8.1627  -12.1983   11.6738 C   0  0  0  0  0  0  0  0  0  0  0  0
   -7.4390  -11.0301   11.9055 C   0  0  0  0  0  0  0  0  0  0  0  0
   -6.1069  -11.0910   12.3103 C   0  0  0  0  0  0  0  0  0  0  0  0
   -5.4897  -12.3324   12.4853 C   0  0  0  0  0  0  0  0  0  0  0  0
   -6.2035  -13.5136   12.2549 C   0  0  0  0  0  0  0  0  0  0  0  0
   -5.3062  -15.1564   12.5638 Br  0  0  0  0  0  0  0  0  0  0  0  0
   -8.1960   -9.5005   11.6887 Cl  0  0  0  0  0  0  0  0  0  0  0  0
  1  2  1  0
  2  3  1  0
  3  4  2  0
  3  5  1  0
  5  6  2  0
  5 10  1  0
  6  7  1  0
  7  8  2  0
  7 12  1  0
  8  9  1  0
  9 10  2  0
 10 11  1  0
M  END
>  <Gold.Gold.Protein.RotatedWaterAtoms>  (23) 


>  <Gold.Id.Protein>  (23) 


>  <Gold.PLP.Chemscore.CHOScore>  (23) 
0.0000

>  <Gold.PLP.Chemscore.Hbond>  (23) 
0.4160

>  <Gold.PLP.Chemscore.Internal.Correction>  (23) 
0.0004

>  <Gold.PLP.Chemscore.Metal>  (23) 
0.0000

>  <Gold.PLP.Fitness>  (23) 
48.9046

>  <Gold.PLP.PLP>  (23) 
-47.6744

>  <Gold.PLP.ligand.clash>  (23) 
0.0000

>  <Gold.PLP.ligand.torsion>  (23) 
0.0091

>  <Gold.PLP.part.buried>  (23) 
-7.3578

>  <Gold.PLP.part.hbond>  (23) 
-0.5127

>  <Gold.PLP.part.metal>  (23) 
0.0000

>  <Gold.PLP.part.nonpolar>  (23) 
-40.3098

>  <Gold.PLP.part.repulsive>  (23) 
0.1684

>  <Gold.Protein.RotatedAtoms>  (23) 


>  <Gold.Protein.RotatedTorsions>  (23) 


>  <Gold.Protein.RotatedWaterAtoms>  (23) 


>  <Gold.Version>  (23) 
5.3.0

>  <PLP.Chemscore.CHOScore>  (23) 


>  <PLP.Chemscore.Hbond>  (23) 


>  <PLP.Chemscore.Internal.Correction>  (23) 


>  <PLP.Chemscore.Metal>  (23) 


>  <PLP.Fitness>  (23) 


>  <PLP.PLP>  (23) 


>  <PLP.ligand.clash>  (23) 


>  <PLP.ligand.torsion>  (23) 


>  <PLP.part.buried>  (23) 


>  <PLP.part.hbond>  (23) 


>  <PLP.part.metal>  (23) 


>  <PLP.part.nonpolar>  (23) 


>  <PLP.part.repulsive>  (23) 


>  <RMSD>  (23) 
0.30972197429

>  <Torsion>  (23) 
172.929186758

>  <TorsionO>  (23) 
24.4968065243

>  <TorsionR>  (23) 
162.574006718

>  <Version>  (23) 


>  <product>  (23) 
12|Compound_8|Compounds_3D_F|sdf|4|dock2|1

>  <rmsd>  (23) 
-1

$$$$
110|565385_49|Aromatic_carboxylic_acids_F|sdf|29|dock1|1
     RDKit          3D

 13 13  0  0  0  0  0  0  0  0999 V2000
  -10.1118  -17.9021   11.6320 C   0  0  0  0  0  0  0  0  0  0  0  0
   -9.7537  -16.5043   11.6546 N   0  0  0  0  0  0  0  0  0  0  0  0
   -8.4330  -16.1187   11.7930 C   0  0  0  0  0  0  0  0  0  0  0  0
   -7.5159  -16.9298   11.9008 O   0  0  0  0  0  0  0  0  0  0  0  0
   -8.1234  -14.6552   11.8105 C   0  0  0  0  0  0  0  0  0  0  0  0
   -9.0636  -13.6551   11.5375 C   0  0  0  0  0  0  0  0  0  0  0  0
   -8.6966  -12.3009   11.5726 C   0  0  0  0  0  0  0  0  0  0  0  0
   -7.3879  -11.9195   11.8809 C   0  0  0  0  0  0  0  0  0  0  0  0
   -6.4486  -12.9235   12.1551 C   0  0  0  0  0  0  0  0  0  0  0  0
   -6.8098  -14.2750   12.1207 C   0  0  0  0  0  0  0  0  0  0  0  0
   -4.6444  -12.5025   12.5849 Br  0  0  0  0  0  0  0  0  0  0  0  0
   -6.9476  -10.6242   11.9372 O   0  0  0  0  0  0  0  0  0  0  0  0
   -7.9020   -9.5910   11.7256 C   0  0  0  0  0  0  0  0  0  0  0  0
  1  2  1  0
  2  3  1  0
  3  4  2  0
  3  5  1  0
  5  6  2  0
  5 10  1  0
  6  7  1  0
  7  8  2  0
  8  9  1  0
  8 12  1  0
  9 10  2  0
  9 11  1  0
 12 13  1  0
M  END
>  <Gold.Gold.Protein.RotatedWaterAtoms>  (24) 


>  <Gold.Id.Protein>  (24) 


>  <Gold.PLP.Chemscore.CHOScore>  (24) 
0.0000

>  <Gold.PLP.Chemscore.Hbond>  (24) 
1.0000

>  <Gold.PLP.Chemscore.Internal.Correction>  (24) 
0.0000

>  <Gold.PLP.Chemscore.Metal>  (24) 
0.0000

>  <Gold.PLP.Fitness>  (24) 
43.9775

>  <Gold.PLP.PLP>  (24) 
-41.0517

>  <Gold.PLP.ligand.clash>  (24) 
0.0000

>  <Gold.PLP.ligand.torsion>  (24) 
0.0371

>  <Gold.PLP.part.buried>  (24) 
-3.7367

>  <Gold.PLP.part.hbond>  (24) 
-1.0000

>  <Gold.PLP.part.metal>  (24) 
0.0000

>  <Gold.PLP.part.nonpolar>  (24) 
-36.7483

>  <Gold.PLP.part.repulsive>  (24) 
0.4054

>  <Gold.Protein.RotatedAtoms>  (24) 


>  <Gold.Protein.RotatedTorsions>  (24) 


>  <Gold.Protein.RotatedWaterAtoms>  (24) 


>  <Gold.Version>  (24) 
5.3.0

>  <PLP.Chemscore.CHOScore>  (24) 


>  <PLP.Chemscore.Hbond>  (24) 


>  <PLP.Chemscore.Internal.Correction>  (24) 


>  <PLP.Chemscore.Metal>  (24) 


>  <PLP.Fitness>  (24) 


>  <PLP.PLP>  (24) 


>  <PLP.ligand.clash>  (24) 


>  <PLP.ligand.torsion>  (24) 


>  <PLP.part.buried>  (24) 


>  <PLP.part.hbond>  (24) 


>  <PLP.part.metal>  (24) 


>  <PLP.part.nonpolar>  (24) 


>  <PLP.part.repulsive>  (24) 


>  <RMSD>  (24) 
0.319376411377

>  <Torsion>  (24) 
169.460450784

>  <TorsionO>  (24) 
9.7963905484

>  <TorsionR>  (24) 
179.256841332

>  <Version>  (24) 


>  <product>  (24) 
12|Compound_8|Compounds_3D_F|sdf|4|dock2|1

>  <rmsd>  (24) 
-1

$$$$
128|137677_56|Aromatic_carboxylic_acids_F|sdf|33|dock1|1
     RDKit          3D

 11 11  0  0  0  0  0  0  0  0999 V2000
   -8.6116  -16.1544   11.8887 C   0  0  0  0  0  0  0  0  0  0  0  0
   -7.9978  -14.8484   11.9215 N   0  0  0  0  0  0  0  0  0  0  0  0
   -8.7778  -13.7008   11.8756 C   0  0  0  0  0  0  0  0  0  0  0  0
  -10.0002  -13.7896   11.8139 O   0  0  0  0  0  0  0  0  0  0  0  0
   -8.0808  -12.3609   11.9017 C   0  0  0  0  0  0  0  0  0  0  0  0
   -8.7916  -11.1851   11.5813 C   0  0  0  0  0  0  0  0  0  0  0  0
   -8.1781   -9.9267   11.5989 C   0  0  0  0  0  0  0  0  0  0  0  0
   -6.8391   -9.8089   11.9369 C   0  0  0  0  0  0  0  0  0  0  0  0
   -6.1124  -10.9502   12.2575 C   0  0  0  0  0  0  0  0  0  0  0  0
   -6.7171  -12.2196   12.2428 C   0  0  0  0  0  0  0  0  0  0  0  0
   -5.5419  -13.6455   12.7121 Br  0  0  0  0  0  0  0  0  0  0  0  0
  1  2  1  0
  2  3  1  0
  3  4  2  0
  3  5  1  0
  5  6  2  0
  5 10  1  0
  6  7  1  0
  7  8  2  0
  8  9  1  0
  9 10  2  0
 10 11  1  0
M  END
>  <Gold.Gold.Protein.RotatedWaterAtoms>  (25) 


>  <Gold.Id.Protein>  (25) 


>  <Gold.PLP.Chemscore.CHOScore>  (25) 
0.0000

>  <Gold.PLP.Chemscore.Hbond>  (25) 
1.0000

>  <Gold.PLP.Chemscore.Internal.Correction>  (25) 
0.0000

>  <Gold.PLP.Chemscore.Metal>  (25) 
0.0000

>  <Gold.PLP.Fitness>  (25) 
45.2899

>  <Gold.PLP.PLP>  (25) 
-42.4444

>  <Gold.PLP.ligand.clash>  (25) 
0.0000

>  <Gold.PLP.ligand.torsion>  (25) 
0.0772

>  <Gold.PLP.part.buried>  (25) 
-6.4690

>  <Gold.PLP.part.hbond>  (25) 
-0.6863

>  <Gold.PLP.part.metal>  (25) 
0.0000

>  <Gold.PLP.part.nonpolar>  (25) 
-34.8280

>  <Gold.PLP.part.repulsive>  (25) 
0.1963

>  <Gold.Protein.RotatedAtoms>  (25) 


>  <Gold.Protein.RotatedTorsions>  (25) 


>  <Gold.Protein.RotatedWaterAtoms>  (25) 


>  <Gold.Version>  (25) 
5.3.0

>  <PLP.Chemscore.CHOScore>  (25) 


>  <PLP.Chemscore.Hbond>  (25) 


>  <PLP.Chemscore.Internal.Correction>  (25) 


>  <PLP.Chemscore.Metal>  (25) 


>  <PLP.Fitness>  (25) 


>  <PLP.PLP>  (25) 


>  <PLP.ligand.clash>  (25) 


>  <PLP.ligand.torsion>  (25) 


>  <PLP.part.buried>  (25) 


>  <PLP.part.hbond>  (25) 


>  <PLP.part.metal>  (25) 


>  <PLP.part.nonpolar>  (25) 


>  <PLP.part.repulsive>  (25) 


>  <RMSD>  (25) 
0.428070490903

>  <Torsion>  (25) 
152.444048788

>  <TorsionO>  (25) 
39.0580871276

>  <TorsionR>  (25) 
168.497864085

>  <Version>  (25) 


>  <product>  (25) 
12|Compound_8|Compounds_3D_F|sdf|4|dock2|1

>  <rmsd>  (25) 
-1

$$$$
974|750794_1404|Aromatic_primary_amines_F|sdf|194|dock3|1
     RDKit          3D

 14 14  0  0  0  0  0  0  0  0999 V2000
  -13.6355  -18.1936    9.4145 C   0  0  0  0  0  0  0  0  0  0  0  0
  -13.2544  -19.4497   10.1732 C   0  0  0  0  0  0  0  0  0  0  0  0
  -11.8731  -19.3506   10.5383 O   0  0  0  0  0  0  0  0  0  0  0  0
  -11.6148  -18.5085   11.5823 C   0  0  0  0  0  0  0  0  0  0  0  0
  -12.3947  -18.2810   12.5004 O   0  0  0  0  0  0  0  0  0  0  0  0
  -10.3031  -17.8985   11.4902 C   0  0  0  0  0  0  0  0  0  0  0  0
   -9.1673  -18.4974   10.9931 C   0  0  0  0  0  0  0  0  0  0  0  0
   -8.1448  -17.6055   11.0758 O   0  0  0  0  0  0  0  0  0  0  0  0
   -8.7110  -16.4917   11.6237 C   0  0  0  0  0  0  0  0  0  0  0  0
   -9.9933  -16.6110   11.8915 N   0  0  0  0  0  0  0  0  0  0  0  0
   -7.9611  -15.3718   11.8549 N   0  0  0  0  0  0  0  0  0  0  0  0
   -8.5046  -14.1249   12.0676 C   0  0  0  0  0  0  0  0  0  0  0  0
   -9.6950  -13.8313   12.1035 O   0  0  0  0  0  0  0  0  0  0  0  0
   -7.4448  -13.0785   12.3021 C   0  0  0  0  0  0  0  0  0  0  0  0
  1  2  1  0
  2  3  1  0
  3  4  1  0
  4  5  2  0
  4  6  1  0
  6  7  2  0
  6 10  1  0
  7  8  1  0
  8  9  1  0
  9 10  2  0
  9 11  1  0
 11 12  1  0
 12 13  2  0
 12 14  1  0
M  END
>  <Gold.Gold.Protein.RotatedWaterAtoms>  (26) 


>  <Gold.Id.Protein>  (26) 


>  <Gold.PLP.Chemscore.CHOScore>  (26) 
0.0000

>  <Gold.PLP.Chemscore.Hbond>  (26) 
2.0000

>  <Gold.PLP.Chemscore.Internal.Correction>  (26) 
0.0053

>  <Gold.PLP.Chemscore.Metal>  (26) 
0.0000

>  <Gold.PLP.Fitness>  (26) 
36.8047

>  <Gold.PLP.PLP>  (26) 
-32.7996

>  <Gold.PLP.ligand.clash>  (26) 
0.0000

>  <Gold.PLP.ligand.torsion>  (26) 
1.0001

>  <Gold.PLP.part.buried>  (26) 
-6.5206

>  <Gold.PLP.part.hbond>  (26) 
-2.9156

>  <Gold.PLP.part.metal>  (26) 
0.0000

>  <Gold.PLP.part.nonpolar>  (26) 
-23.4080

>  <Gold.PLP.part.repulsive>  (26) 
0.3100

>  <Gold.Protein.RotatedAtoms>  (26) 


>  <Gold.Protein.RotatedTorsions>  (26) 


>  <Gold.Protein.RotatedWaterAtoms>  (26) 


>  <Gold.Version>  (26) 
5.3.0

>  <PLP.Chemscore.CHOScore>  (26) 


>  <PLP.Chemscore.Hbond>  (26) 


>  <PLP.Chemscore.Internal.Correction>  (26) 


>  <PLP.Chemscore.Metal>  (26) 


>  <PLP.Fitness>  (26) 


>  <PLP.PLP>  (26) 


>  <PLP.ligand.clash>  (26) 


>  <PLP.ligand.torsion>  (26) 


>  <PLP.part.buried>  (26) 


>  <PLP.part.hbond>  (26) 


>  <PLP.part.metal>  (26) 


>  <PLP.part.nonpolar>  (26) 


>  <PLP.part.repulsive>  (26) 


>  <RMSD>  (26) 
0.499949349045

>  <Torsion>  (26) 
159.973716791

>  <TorsionO>  (26) 
19.1052109979

>  <TorsionR>  (26) 
179.078927789

>  <Version>  (26) 


>  <product>  (26) 
12|Compound_8|Compounds_3D_F|sdf|4|dock2|1

>  <rmsd>  (26) 
-1

$$$$
1884|M3006_1781|Aromatic_primary_amines_F|sdf|361|dock3|1
     RDKit          3D

 31 34  0  0  0  0  0  0  0  0999 V2000
  -14.4210  -19.8971    8.7934 C   0  0  0  0  0  0  0  0  0  0  0  0
  -13.9762  -19.4927   10.1894 C   0  0  0  0  0  0  0  0  0  0  0  0
  -14.1356  -20.6409   11.1817 C   0  0  0  0  0  0  0  0  0  0  0  0
  -13.5197  -20.3070   12.5189 C   0  0  0  0  0  0  0  0  0  0  0  0
  -12.9307  -19.2724   12.7954 O   0  0  0  0  0  0  0  0  0  0  0  0
  -13.7110  -21.3451   13.3845 O   0  0  0  0  0  0  0  0  0  0  0  0
  -12.9425  -21.2698   14.5900 C   0  0  0  0  0  0  0  0  0  0  0  0
  -12.8849  -22.6189   15.2889 C   0  0  0  0  0  0  0  0  0  0  0  0
  -11.6552  -22.4172   16.1494 C   0  0  0  0  0  0  0  0  0  0  0  0
  -11.2420  -23.7410   16.7624 C   0  0  0  0  0  0  0  0  0  0  0  0
  -12.3024  -24.2223   17.5862 O   0  0  0  0  0  0  0  0  0  0  0  0
  -13.7888  -24.3384   16.9603 P   0  0  0  0  0  0  0  0  0  0  0  0
  -14.8775  -24.6795   17.9243 O   0  0  0  0  0  0  0  0  0  0  0  0
  -13.9839  -22.9641   16.1174 O   0  0  0  0  0  0  0  0  0  0  0  0
  -13.5991  -25.4435   15.8075 O   0  0  0  0  0  0  0  0  0  0  0  0
  -10.6922  -21.8161   15.2889 O   0  0  0  0  0  0  0  0  0  0  0  0
  -11.4338  -20.9664   14.3653 C   0  0  0  0  0  0  0  0  0  0  0  0
  -10.9052  -21.2017   13.0342 N   0  0  0  0  0  0  0  0  0  0  0  0
  -10.7814  -22.4114   12.4013 C   0  0  0  0  0  0  0  0  0  0  0  0
  -10.2640  -22.2918   11.1953 N   0  0  0  0  0  0  0  0  0  0  0  0
  -10.0274  -20.9476   11.0424 C   0  0  0  0  0  0  0  0  0  0  0  0
  -10.4203  -20.2487   12.1733 C   0  0  0  0  0  0  0  0  0  0  0  0
  -10.3338  -18.9216   12.3641 N   0  0  0  0  0  0  0  0  0  0  0  0
   -9.8057  -18.2730   11.3024 C   0  0  0  0  0  0  0  0  0  0  0  0
   -9.3808  -18.8370   10.1545 N   0  0  0  0  0  0  0  0  0  0  0  0
   -9.4895  -20.1691   10.0244 C   0  0  0  0  0  0  0  0  0  0  0  0
   -9.0330  -20.6622    8.8349 O   0  0  0  0  0  0  0  0  0  0  0  0
   -9.7222  -16.8901   11.4793 N   0  0  0  0  0  0  0  0  0  0  0  0
   -8.5796  -16.1798   11.7761 C   0  0  0  0  0  0  0  0  0  0  0  0
   -7.4445  -16.6221   11.9131 O   0  0  0  0  0  0  0  0  0  0  0  0
   -8.8524  -14.7024   11.8973 C   0  0  0  0  0  0  0  0  0  0  0  0
  1  2  1  0
  2  3  1  0
  3  4  1  0
  4  5  2  0
  4  6  1  0
  6  7  1  0
  7  8  1  0
  7 17  1  0
  8  9  1  0
  8 14  1  0
  9 10  1  0
  9 16  1  0
 10 11  1  0
 11 12  1  0
 12 13  2  0
 12 14  1  0
 12 15  1  0
 16 17  1  0
 17 18  1  0
 18 19  1  0
 18 22  1  0
 19 20  2  0
 20 21  1  0
 21 22  2  0
 21 26  1  0
 22 23  1  0
 23 24  2  0
 24 25  1  0
 24 28  1  0
 25 26  2  0
 26 27  1  0
 28 29  1  0
 29 30  2  0
 29 31  1  0
M  END
>  <Gold.Gold.Protein.RotatedWaterAtoms>  (27) 


>  <Gold.Id.Protein>  (27) 


>  <Gold.PLP.Chemscore.CHOScore>  (27) 
0.0000

>  <Gold.PLP.Chemscore.Hbond>  (27) 
1.2080

>  <Gold.PLP.Chemscore.Internal.Correction>  (27) 
0.1232

>  <Gold.PLP.Chemscore.Metal>  (27) 
0.0000

>  <Gold.PLP.Fitness>  (27) 
47.7145

>  <Gold.PLP.PLP>  (27) 
-46.0218

>  <Gold.PLP.ligand.clash>  (27) 
0.0000

>  <Gold.PLP.ligand.torsion>  (27) 
1.0272

>  <Gold.PLP.part.buried>  (27) 
-2.2958

>  <Gold.PLP.part.hbond>  (27) 
-4.0214

>  <Gold.PLP.part.metal>  (27) 
0.0000

>  <Gold.PLP.part.nonpolar>  (27) 
-41.4699

>  <Gold.PLP.part.repulsive>  (27) 
0.9524

>  <Gold.Protein.RotatedAtoms>  (27) 


>  <Gold.Protein.RotatedTorsions>  (27) 


>  <Gold.Protein.RotatedWaterAtoms>  (27) 


>  <Gold.Version>  (27) 
5.3.0

>  <PLP.Chemscore.CHOScore>  (27) 


>  <PLP.Chemscore.Hbond>  (27) 


>  <PLP.Chemscore.Internal.Correction>  (27) 


>  <PLP.Chemscore.Metal>  (27) 


>  <PLP.Fitness>  (27) 


>  <PLP.PLP>  (27) 


>  <PLP.ligand.clash>  (27) 


>  <PLP.ligand.torsion>  (27) 


>  <PLP.part.buried>  (27) 


>  <PLP.part.hbond>  (27) 


>  <PLP.part.metal>  (27) 


>  <PLP.part.nonpolar>  (27) 


>  <PLP.part.repulsive>  (27) 


>  <RMSD>  (27) 
0.291955871297

>  <Torsion>  (27) 
171.923704933

>  <TorsionO>  (27) 
6.03609353985

>  <TorsionR>  (27) 
177.959798473

>  <Version>  (27) 


>  <product>  (27) 
12|Compound_8|Compounds_3D_F|sdf|4|dock2|1

>  <rmsd>  (27) 
-1

$$$$
193|32168_281|Aromatic_primary_amines_F|sdf|39|dock6|1
     RDKit          3D

 23 25  0  0  0  0  0  0  0  0999 V2000
   -7.8439  -12.1461   11.8919 C   0  0  0  0  0  0  0  0  0  0  0  0
   -8.5691  -13.4472   11.6781 C   0  0  0  0  0  0  0  0  0  0  0  0
   -9.7886  -13.4981   11.5208 O   0  0  0  0  0  0  0  0  0  0  0  0
   -7.7264  -14.5390   11.7020 N   0  0  0  0  0  0  0  0  0  0  0  0
   -8.1889  -15.8197   11.5323 C   0  0  0  0  0  0  0  0  0  0  0  0
   -9.4747  -16.2039   11.8163 N   0  0  0  0  0  0  0  0  0  0  0  0
   -9.5964  -17.5375   11.5379 C   0  0  0  0  0  0  0  0  0  0  0  0
  -10.6643  -18.4283   11.6415 C   0  0  0  0  0  0  0  0  0  0  0  0
  -10.4051  -19.7586   11.2778 C   0  0  0  0  0  0  0  0  0  0  0  0
   -9.1530  -20.1507   10.7795 C   0  0  0  0  0  0  0  0  0  0  0  0
   -8.1017  -19.2294   10.6839 C   0  0  0  0  0  0  0  0  0  0  0  0
   -8.3349  -17.9032   11.0783 C   0  0  0  0  0  0  0  0  0  0  0  0
   -7.4773  -16.8281   11.0838 N   0  0  0  0  0  0  0  0  0  0  0  0
   -8.8530  -21.7658   10.2429 Cl  0  0  0  0  0  0  0  0  0  0  0  0
  -11.4669  -20.6323   11.3734 O   0  0  0  0  0  0  0  0  0  0  0  0
  -12.5262  -20.4408   10.5053 C   0  0  0  0  0  0  0  0  0  0  0  0
  -13.3188  -19.2846   10.5304 C   0  0  0  0  0  0  0  0  0  0  0  0
  -14.3665  -19.1344    9.6224 C   0  0  0  0  0  0  0  0  0  0  0  0
  -14.6219  -20.1279    8.6796 C   0  0  0  0  0  0  0  0  0  0  0  0
  -13.8238  -21.2756    8.6345 C   0  0  0  0  0  0  0  0  0  0  0  0
  -12.7674  -21.4342    9.5416 C   0  0  0  0  0  0  0  0  0  0  0  0
  -11.7588  -22.8458    9.4996 Cl  0  0  0  0  0  0  0  0  0  0  0  0
  -14.1988  -22.4584    7.4296 Cl  0  0  0  0  0  0  0  0  0  0  0  0
  1  2  1  0
  2  3  2  0
  2  4  1  0
  4  5  1  0
  5  6  1  0
  5 13  2  0
  6  7  1  0
  7  8  2  0
  7 12  1  0
  8  9  1  0
  9 10  2  0
  9 15  1  0
 10 11  1  0
 10 14  1  0
 11 12  2  0
 12 13  1  0
 15 16  1  0
 16 17  2  0
 16 21  1  0
 17 18  1  0
 18 19  2  0
 19 20  1  0
 20 21  2  0
 20 23  1  0
 21 22  1  0
M  END
>  <Gold.Gold.Protein.RotatedWaterAtoms>  (28) 


>  <Gold.Id.Protein>  (28) 


>  <Gold.PLP.Chemscore.CHOScore>  (28) 
0.0000

>  <Gold.PLP.Chemscore.Hbond>  (28) 
1.0000

>  <Gold.PLP.Chemscore.Internal.Correction>  (28) 
0.0086

>  <Gold.PLP.Chemscore.Metal>  (28) 
0.0000

>  <Gold.PLP.Fitness>  (28) 
50.7139

>  <Gold.PLP.PLP>  (28) 
-48.1706

>  <Gold.PLP.ligand.clash>  (28) 
0.0000

>  <Gold.PLP.ligand.torsion>  (28) 
0.2327

>  <Gold.PLP.part.buried>  (28) 
-6.5205

>  <Gold.PLP.part.hbond>  (28) 
-2.0000

>  <Gold.PLP.part.metal>  (28) 
0.0000

>  <Gold.PLP.part.nonpolar>  (28) 
-39.3857

>  <Gold.PLP.part.repulsive>  (28) 
0.3298

>  <Gold.Protein.RotatedAtoms>  (28) 


>  <Gold.Protein.RotatedTorsions>  (28) 


>  <Gold.Protein.RotatedWaterAtoms>  (28) 


>  <Gold.Version>  (28) 
5.3.0

>  <PLP.Chemscore.CHOScore>  (28) 


>  <PLP.Chemscore.Hbond>  (28) 


>  <PLP.Chemscore.Internal.Correction>  (28) 


>  <PLP.Chemscore.Metal>  (28) 


>  <PLP.Fitness>  (28) 


>  <PLP.PLP>  (28) 


>  <PLP.ligand.clash>  (28) 


>  <PLP.ligand.torsion>  (28) 


>  <PLP.part.buried>  (28) 


>  <PLP.part.hbond>  (28) 


>  <PLP.part.metal>  (28) 


>  <PLP.part.nonpolar>  (28) 


>  <PLP.part.repulsive>  (28) 


>  <RMSD>  (28) 
0.439733510035

>  <Torsion>  (28) 
177.672185574

>  <TorsionO>  (28) 
4.31728583372

>  <TorsionR>  (28) 
173.35489974

>  <Version>  (28) 


>  <product>  (28) 
12|Compound_8|Compounds_3D_F|sdf|4|dock2|1

>  <rmsd>  (28) 
-1

$$$$
22|Compound_12|Compounds_3D_F|sdf|5|dock3|1
     RDKit          3D

  6  5  0  0  0  0  0  0  0  0999 V2000
   -3.8670  -16.9701   11.3622 B   0  0  0  0  0  0  0  0  0  0  0  0
   -4.9042  -16.0750   12.1282 C   0  0  0  0  0  0  0  0  0  0  0  0
   -5.7841  -16.5912   12.7835 O   0  0  0  0  0  0  0  0  0  0  0  0
   -4.8168  -14.7316   12.0571 N   0  0  0  0  0  0  0  0  0  0  0  0
   -5.7853  -13.8961   12.7721 C   0  0  0  0  0  0  0  0  0  0  0  0
   -5.4852  -12.4207   12.4993 C   0  0  0  0  0  0  0  0  0  0  0  0
  1  2  1  0
  2  3  2  0
  2  4  1  0
  4  5  1  0
  5  6  1  0
M  END
>  <Gold.Gold.Protein.RotatedWaterAtoms>  (29) 


>  <Gold.Id.Protein>  (29) 


>  <Gold.PLP.Chemscore.CHOScore>  (29) 
0.0000

>  <Gold.PLP.Chemscore.Hbond>  (29) 
1.0000

>  <Gold.PLP.Chemscore.Internal.Correction>  (29) 
0.0000

>  <Gold.PLP.Chemscore.Metal>  (29) 
0.0000

>  <Gold.PLP.Fitness>  (29) 
24.2463

>  <Gold.PLP.PLP>  (29) 
-21.2482

>  <Gold.PLP.ligand.clash>  (29) 
0.0000

>  <Gold.PLP.ligand.torsion>  (29) 
0.0010

>  <Gold.PLP.part.buried>  (29) 
-4.3678

>  <Gold.PLP.part.hbond>  (29) 
-2.0000

>  <Gold.PLP.part.metal>  (29) 
0.0000

>  <Gold.PLP.part.nonpolar>  (29) 
-14.9922

>  <Gold.PLP.part.repulsive>  (29) 
0.1574

>  <Gold.Protein.RotatedAtoms>  (29) 


>  <Gold.Protein.RotatedTorsions>  (29) 


>  <Gold.Protein.RotatedWaterAtoms>  (29) 


>  <Gold.Version>  (29) 
5.3.0

>  <PLP.Chemscore.CHOScore>  (29) 


>  <PLP.Chemscore.Hbond>  (29) 


>  <PLP.Chemscore.Internal.Correction>  (29) 


>  <PLP.Chemscore.Metal>  (29) 


>  <PLP.Fitness>  (29) 


>  <PLP.PLP>  (29) 


>  <PLP.ligand.clash>  (29) 


>  <PLP.ligand.torsion>  (29) 


>  <PLP.part.buried>  (29) 


>  <PLP.part.hbond>  (29) 


>  <PLP.part.metal>  (29) 


>  <PLP.part.nonpolar>  (29) 


>  <PLP.part.repulsive>  (29) 


>  <Version>  (29) 


$$$$
94|664022_40|Aromatic_carboxylic_acids_F|sdf|24|dock1|1
     RDKit          3D

 12 12  0  0  0  0  0  0  0  0999 V2000
   -8.2596  -17.1212   11.4595 C   0  0  0  0  0  0  0  0  0  0  0  0
   -7.6366  -15.8367   11.6688 N   0  0  0  0  0  0  0  0  0  0  0  0
   -8.3409  -14.6553   11.5719 C   0  0  0  0  0  0  0  0  0  0  0  0
   -9.5296  -14.5547   11.2978 O   0  0  0  0  0  0  0  0  0  0  0  0
   -7.5420  -13.4431   11.8503 C   0  0  0  0  0  0  0  0  0  0  0  0
   -8.1627  -12.1983   11.6738 C   0  0  0  0  0  0  0  0  0  0  0  0
   -7.4390  -11.0301   11.9055 C   0  0  0  0  0  0  0  0  0  0  0  0
   -6.1069  -11.0910   12.3103 C   0  0  0  0  0  0  0  0  0  0  0  0
   -5.4897  -12.3324   12.4853 C   0  0  0  0  0  0  0  0  0  0  0  0
   -6.2035  -13.5136   12.2549 C   0  0  0  0  0  0  0  0  0  0  0  0
   -5.3062  -15.1564   12.5638 Br  0  0  0  0  0  0  0  0  0  0  0  0
   -8.1960   -9.5005   11.6887 Cl  0  0  0  0  0  0  0  0  0  0  0  0
  1  2  1  0
  2  3  1  0
  3  4  2  0
  3  5  1  0
  5  6  2  0
  5 10  1  0
  6  7  1  0
  7  8  2  0
  7 12  1  0
  8  9  1  0
  9 10  2  0
 10 11  1  0
M  END
>  <Gold.Gold.Protein.RotatedWaterAtoms>  (30) 


>  <Gold.Id.Protein>  (30) 


>  <Gold.PLP.Chemscore.CHOScore>  (30) 
0.0000

>  <Gold.PLP.Chemscore.Hbond>  (30) 
0.4160

>  <Gold.PLP.Chemscore.Internal.Correction>  (30) 
0.0004

>  <Gold.PLP.Chemscore.Metal>  (30) 
0.0000

>  <Gold.PLP.Fitness>  (30) 
48.9046

>  <Gold.PLP.PLP>  (30) 
-47.6744

>  <Gold.PLP.ligand.clash>  (30) 
0.0000

>  <Gold.PLP.ligand.torsion>  (30) 
0.0091

>  <Gold.PLP.part.buried>  (30) 
-7.3578

>  <Gold.PLP.part.hbond>  (30) 
-0.5127

>  <Gold.PLP.part.metal>  (30) 
0.0000

>  <Gold.PLP.part.nonpolar>  (30) 
-40.3098

>  <Gold.PLP.part.repulsive>  (30) 
0.1684

>  <Gold.Protein.RotatedAtoms>  (30) 


>  <Gold.Protein.RotatedTorsions>  (30) 


>  <Gold.Protein.RotatedWaterAtoms>  (30) 


>  <Gold.Version>  (30) 
5.3.0

>  <PLP.Chemscore.CHOScore>  (30) 


>  <PLP.Chemscore.Hbond>  (30) 


>  <PLP.Chemscore.Internal.Correction>  (30) 


>  <PLP.Chemscore.Metal>  (30) 


>  <PLP.Fitness>  (30) 


>  <PLP.PLP>  (30) 


>  <PLP.ligand.clash>  (30) 


>  <PLP.ligand.torsion>  (30) 


>  <PLP.part.buried>  (30) 


>  <PLP.part.hbond>  (30) 


>  <PLP.part.metal>  (30) 


>  <PLP.part.nonpolar>  (30) 


>  <PLP.part.repulsive>  (30) 


>  <RMSD>  (30) 
0.30972197429

>  <Torsion>  (30) 
172.929186758

>  <TorsionO>  (30) 
24.4968065243

>  <TorsionR>  (30) 
162.574006718

>  <Version>  (30) 


>  <product>  (30) 
22|Compound_12|Compounds_3D_F|sdf|5|dock3|1

>  <rmsd>  (30) 
-1

$$$$
110|565385_49|Aromatic_carboxylic_acids_F|sdf|29|dock1|1
     RDKit          3D

 13 13  0  0  0  0  0  0  0  0999 V2000
  -10.1118  -17.9021   11.6320 C   0  0  0  0  0  0  0  0  0  0  0  0
   -9.7537  -16.5043   11.6546 N   0  0  0  0  0  0  0  0  0  0  0  0
   -8.4330  -16.1187   11.7930 C   0  0  0  0  0  0  0  0  0  0  0  0
   -7.5159  -16.9298   11.9008 O   0  0  0  0  0  0  0  0  0  0  0  0
   -8.1234  -14.6552   11.8105 C   0  0  0  0  0  0  0  0  0  0  0  0
   -9.0636  -13.6551   11.5375 C   0  0  0  0  0  0  0  0  0  0  0  0
   -8.6966  -12.3009   11.5726 C   0  0  0  0  0  0  0  0  0  0  0  0
   -7.3879  -11.9195   11.8809 C   0  0  0  0  0  0  0  0  0  0  0  0
   -6.4486  -12.9235   12.1551 C   0  0  0  0  0  0  0  0  0  0  0  0
   -6.8098  -14.2750   12.1207 C   0  0  0  0  0  0  0  0  0  0  0  0
   -4.6444  -12.5025   12.5849 Br  0  0  0  0  0  0  0  0  0  0  0  0
   -6.9476  -10.6242   11.9372 O   0  0  0  0  0  0  0  0  0  0  0  0
   -7.9020   -9.5910   11.7256 C   0  0  0  0  0  0  0  0  0  0  0  0
  1  2  1  0
  2  3  1  0
  3  4  2  0
  3  5  1  0
  5  6  2  0
  5 10  1  0
  6  7  1  0
  7  8  2  0
  8  9  1  0
  8 12  1  0
  9 10  2  0
  9 11  1  0
 12 13  1  0
M  END
>  <Gold.Gold.Protein.RotatedWaterAtoms>  (31) 


>  <Gold.Id.Protein>  (31) 


>  <Gold.PLP.Chemscore.CHOScore>  (31) 
0.0000

>  <Gold.PLP.Chemscore.Hbond>  (31) 
1.0000

>  <Gold.PLP.Chemscore.Internal.Correction>  (31) 
0.0000

>  <Gold.PLP.Chemscore.Metal>  (31) 
0.0000

>  <Gold.PLP.Fitness>  (31) 
43.9775

>  <Gold.PLP.PLP>  (31) 
-41.0517

>  <Gold.PLP.ligand.clash>  (31) 
0.0000

>  <Gold.PLP.ligand.torsion>  (31) 
0.0371

>  <Gold.PLP.part.buried>  (31) 
-3.7367

>  <Gold.PLP.part.hbond>  (31) 
-1.0000

>  <Gold.PLP.part.metal>  (31) 
0.0000

>  <Gold.PLP.part.nonpolar>  (31) 
-36.7483

>  <Gold.PLP.part.repulsive>  (31) 
0.4054

>  <Gold.Protein.RotatedAtoms>  (31) 


>  <Gold.Protein.RotatedTorsions>  (31) 


>  <Gold.Protein.RotatedWaterAtoms>  (31) 


>  <Gold.Version>  (31) 
5.3.0

>  <PLP.Chemscore.CHOScore>  (31) 


>  <PLP.Chemscore.Hbond>  (31) 


>  <PLP.Chemscore.Internal.Correction>  (31) 


>  <PLP.Chemscore.Metal>  (31) 


>  <PLP.Fitness>  (31) 


>  <PLP.PLP>  (31) 


>  <PLP.ligand.clash>  (31) 


>  <PLP.ligand.torsion>  (31) 


>  <PLP.part.buried>  (31) 


>  <PLP.part.hbond>  (31) 


>  <PLP.part.metal>  (31) 


>  <PLP.part.nonpolar>  (31) 


>  <PLP.part.repulsive>  (31) 


>  <RMSD>  (31) 
0.319376411377

>  <Torsion>  (31) 
169.460450784

>  <TorsionO>  (31) 
9.7963905484

>  <TorsionR>  (31) 
179.256841332

>  <Version>  (31) 


>  <product>  (31) 
22|Compound_12|Compounds_3D_F|sdf|5|dock3|1

>  <rmsd>  (31) 
-1

$$$$
128|137677_56|Aromatic_carboxylic_acids_F|sdf|33|dock1|1
     RDKit          3D

 11 11  0  0  0  0  0  0  0  0999 V2000
   -8.6116  -16.1544   11.8887 C   0  0  0  0  0  0  0  0  0  0  0  0
   -7.9978  -14.8484   11.9215 N   0  0  0  0  0  0  0  0  0  0  0  0
   -8.7778  -13.7008   11.8756 C   0  0  0  0  0  0  0  0  0  0  0  0
  -10.0002  -13.7896   11.8139 O   0  0  0  0  0  0  0  0  0  0  0  0
   -8.0808  -12.3609   11.9017 C   0  0  0  0  0  0  0  0  0  0  0  0
   -8.7916  -11.1851   11.5813 C   0  0  0  0  0  0  0  0  0  0  0  0
   -8.1781   -9.9267   11.5989 C   0  0  0  0  0  0  0  0  0  0  0  0
   -6.8391   -9.8089   11.9369 C   0  0  0  0  0  0  0  0  0  0  0  0
   -6.1124  -10.9502   12.2575 C   0  0  0  0  0  0  0  0  0  0  0  0
   -6.7171  -12.2196   12.2428 C   0  0  0  0  0  0  0  0  0  0  0  0
   -5.5419  -13.6455   12.7121 Br  0  0  0  0  0  0  0  0  0  0  0  0
  1  2  1  0
  2  3  1  0
  3  4  2  0
  3  5  1  0
  5  6  2  0
  5 10  1  0
  6  7  1  0
  7  8  2  0
  8  9  1  0
  9 10  2  0
 10 11  1  0
M  END
>  <Gold.Gold.Protein.RotatedWaterAtoms>  (32) 


>  <Gold.Id.Protein>  (32) 


>  <Gold.PLP.Chemscore.CHOScore>  (32) 
0.0000

>  <Gold.PLP.Chemscore.Hbond>  (32) 
1.0000

>  <Gold.PLP.Chemscore.Internal.Correction>  (32) 
0.0000

>  <Gold.PLP.Chemscore.Metal>  (32) 
0.0000

>  <Gold.PLP.Fitness>  (32) 
45.2899

>  <Gold.PLP.PLP>  (32) 
-42.4444

>  <Gold.PLP.ligand.clash>  (32) 
0.0000

>  <Gold.PLP.ligand.torsion>  (32) 
0.0772

>  <Gold.PLP.part.buried>  (32) 
-6.4690

>  <Gold.PLP.part.hbond>  (32) 
-0.6863

>  <Gold.PLP.part.metal>  (32) 
0.0000

>  <Gold.PLP.part.nonpolar>  (32) 
-34.8280

>  <Gold.PLP.part.repulsive>  (32) 
0.1963

>  <Gold.Protein.RotatedAtoms>  (32) 


>  <Gold.Protein.RotatedTorsions>  (32) 


>  <Gold.Protein.RotatedWaterAtoms>  (32) 


>  <Gold.Version>  (32) 
5.3.0

>  <PLP.Chemscore.CHOScore>  (32) 


>  <PLP.Chemscore.Hbond>  (32) 


>  <PLP.Chemscore.Internal.Correction>  (32) 


>  <PLP.Chemscore.Metal>  (32) 


>  <PLP.Fitness>  (32) 


>  <PLP.PLP>  (32) 


>  <PLP.ligand.clash>  (32) 


>  <PLP.ligand.torsion>  (32) 


>  <PLP.part.buried>  (32) 


>  <PLP.part.hbond>  (32) 


>  <PLP.part.metal>  (32) 


>  <PLP.part.nonpolar>  (32) 


>  <PLP.part.repulsive>  (32) 


>  <RMSD>  (32) 
0.428070490903

>  <Torsion>  (32) 
152.444048788

>  <TorsionO>  (32) 
39.0580871276

>  <TorsionR>  (32) 
168.497864085

>  <Version>  (32) 


>  <product>  (32) 
22|Compound_12|Compounds_3D_F|sdf|5|dock3|1

>  <rmsd>  (32) 
-1

$$$$
974|750794_1404|Aromatic_primary_amines_F|sdf|194|dock3|1
     RDKit          3D

 14 14  0  0  0  0  0  0  0  0999 V2000
  -13.6355  -18.1936    9.4145 C   0  0  0  0  0  0  0  0  0  0  0  0
  -13.2544  -19.4497   10.1732 C   0  0  0  0  0  0  0  0  0  0  0  0
  -11.8731  -19.3506   10.5383 O   0  0  0  0  0  0  0  0  0  0  0  0
  -11.6148  -18.5085   11.5823 C   0  0  0  0  0  0  0  0  0  0  0  0
  -12.3947  -18.2810   12.5004 O   0  0  0  0  0  0  0  0  0  0  0  0
  -10.3031  -17.8985   11.4902 C   0  0  0  0  0  0  0  0  0  0  0  0
   -9.1673  -18.4974   10.9931 C   0  0  0  0  0  0  0  0  0  0  0  0
   -8.1448  -17.6055   11.0758 O   0  0  0  0  0  0  0  0  0  0  0  0
   -8.7110  -16.4917   11.6237 C   0  0  0  0  0  0  0  0  0  0  0  0
   -9.9933  -16.6110   11.8915 N   0  0  0  0  0  0  0  0  0  0  0  0
   -7.9611  -15.3718   11.8549 N   0  0  0  0  0  0  0  0  0  0  0  0
   -8.5046  -14.1249   12.0676 C   0  0  0  0  0  0  0  0  0  0  0  0
   -9.6950  -13.8313   12.1035 O   0  0  0  0  0  0  0  0  0  0  0  0
   -7.4448  -13.0785   12.3021 C   0  0  0  0  0  0  0  0  0  0  0  0
  1  2  1  0
  2  3  1  0
  3  4  1  0
  4  5  2  0
  4  6  1  0
  6  7  2  0
  6 10  1  0
  7  8  1  0
  8  9  1  0
  9 10  2  0
  9 11  1  0
 11 12  1  0
 12 13  2  0
 12 14  1  0
M  END
>  <Gold.Gold.Protein.RotatedWaterAtoms>  (33) 


>  <Gold.Id.Protein>  (33) 


>  <Gold.PLP.Chemscore.CHOScore>  (33) 
0.0000

>  <Gold.PLP.Chemscore.Hbond>  (33) 
2.0000

>  <Gold.PLP.Chemscore.Internal.Correction>  (33) 
0.0053

>  <Gold.PLP.Chemscore.Metal>  (33) 
0.0000

>  <Gold.PLP.Fitness>  (33) 
36.8047

>  <Gold.PLP.PLP>  (33) 
-32.7996

>  <Gold.PLP.ligand.clash>  (33) 
0.0000

>  <Gold.PLP.ligand.torsion>  (33) 
1.0001

>  <Gold.PLP.part.buried>  (33) 
-6.5206

>  <Gold.PLP.part.hbond>  (33) 
-2.9156

>  <Gold.PLP.part.metal>  (33) 
0.0000

>  <Gold.PLP.part.nonpolar>  (33) 
-23.4080

>  <Gold.PLP.part.repulsive>  (33) 
0.3100

>  <Gold.Protein.RotatedAtoms>  (33) 


>  <Gold.Protein.RotatedTorsions>  (33) 


>  <Gold.Protein.RotatedWaterAtoms>  (33) 


>  <Gold.Version>  (33) 
5.3.0

>  <PLP.Chemscore.CHOScore>  (33) 


>  <PLP.Chemscore.Hbond>  (33) 


>  <PLP.Chemscore.Internal.Correction>  (33) 


>  <PLP.Chemscore.Metal>  (33) 


>  <PLP.Fitness>  (33) 


>  <PLP.PLP>  (33) 


>  <PLP.ligand.clash>  (33) 


>  <PLP.ligand.torsion>  (33) 


>  <PLP.part.buried>  (33) 


>  <PLP.part.hbond>  (33) 


>  <PLP.part.metal>  (33) 


>  <PLP.part.nonpolar>  (33) 


>  <PLP.part.repulsive>  (33) 


>  <RMSD>  (33) 
0.499949349045

>  <Torsion>  (33) 
159.973716791

>  <TorsionO>  (33) 
19.1052109979

>  <TorsionR>  (33) 
179.078927789

>  <Version>  (33) 


>  <product>  (33) 
22|Compound_12|Compounds_3D_F|sdf|5|dock3|1

>  <rmsd>  (33) 
-1

$$$$
1884|M3006_1781|Aromatic_primary_amines_F|sdf|361|dock3|1
     RDKit          3D

 31 34  0  0  0  0  0  0  0  0999 V2000
  -14.4210  -19.8971    8.7934 C   0  0  0  0  0  0  0  0  0  0  0  0
  -13.9762  -19.4927   10.1894 C   0  0  0  0  0  0  0  0  0  0  0  0
  -14.1356  -20.6409   11.1817 C   0  0  0  0  0  0  0  0  0  0  0  0
  -13.5197  -20.3070   12.5189 C   0  0  0  0  0  0  0  0  0  0  0  0
  -12.9307  -19.2724   12.7954 O   0  0  0  0  0  0  0  0  0  0  0  0
  -13.7110  -21.3451   13.3845 O   0  0  0  0  0  0  0  0  0  0  0  0
  -12.9425  -21.2698   14.5900 C   0  0  0  0  0  0  0  0  0  0  0  0
  -12.8849  -22.6189   15.2889 C   0  0  0  0  0  0  0  0  0  0  0  0
  -11.6552  -22.4172   16.1494 C   0  0  0  0  0  0  0  0  0  0  0  0
  -11.2420  -23.7410   16.7624 C   0  0  0  0  0  0  0  0  0  0  0  0
  -12.3024  -24.2223   17.5862 O   0  0  0  0  0  0  0  0  0  0  0  0
  -13.7888  -24.3384   16.9603 P   0  0  0  0  0  0  0  0  0  0  0  0
  -14.8775  -24.6795   17.9243 O   0  0  0  0  0  0  0  0  0  0  0  0
  -13.9839  -22.9641   16.1174 O   0  0  0  0  0  0  0  0  0  0  0  0
  -13.5991  -25.4435   15.8075 O   0  0  0  0  0  0  0  0  0  0  0  0
  -10.6922  -21.8161   15.2889 O   0  0  0  0  0  0  0  0  0  0  0  0
  -11.4338  -20.9664   14.3653 C   0  0  0  0  0  0  0  0  0  0  0  0
  -10.9052  -21.2017   13.0342 N   0  0  0  0  0  0  0  0  0  0  0  0
  -10.7814  -22.4114   12.4013 C   0  0  0  0  0  0  0  0  0  0  0  0
  -10.2640  -22.2918   11.1953 N   0  0  0  0  0  0  0  0  0  0  0  0
  -10.0274  -20.9476   11.0424 C   0  0  0  0  0  0  0  0  0  0  0  0
  -10.4203  -20.2487   12.1733 C   0  0  0  0  0  0  0  0  0  0  0  0
  -10.3338  -18.9216   12.3641 N   0  0  0  0  0  0  0  0  0  0  0  0
   -9.8057  -18.2730   11.3024 C   0  0  0  0  0  0  0  0  0  0  0  0
   -9.3808  -18.8370   10.1545 N   0  0  0  0  0  0  0  0  0  0  0  0
   -9.4895  -20.1691   10.0244 C   0  0  0  0  0  0  0  0  0  0  0  0
   -9.0330  -20.6622    8.8349 O   0  0  0  0  0  0  0  0  0  0  0  0
   -9.7222  -16.8901   11.4793 N   0  0  0  0  0  0  0  0  0  0  0  0
   -8.5796  -16.1798   11.7761 C   0  0  0  0  0  0  0  0  0  0  0  0
   -7.4445  -16.6221   11.9131 O   0  0  0  0  0  0  0  0  0  0  0  0
   -8.8524  -14.7024   11.8973 C   0  0  0  0  0  0  0  0  0  0  0  0
  1  2  1  0
  2  3  1  0
  3  4  1  0
  4  5  2  0
  4  6  1  0
  6  7  1  0
  7  8  1  0
  7 17  1  0
  8  9  1  0
  8 14  1  0
  9 10  1  0
  9 16  1  0
 10 11  1  0
 11 12  1  0
 12 13  2  0
 12 14  1  0
 12 15  1  0
 16 17  1  0
 17 18  1  0
 18 19  1  0
 18 22  1  0
 19 20  2  0
 20 21  1  0
 21 22  2  0
 21 26  1  0
 22 23  1  0
 23 24  2  0
 24 25  1  0
 24 28  1  0
 25 26  2  0
 26 27  1  0
 28 29  1  0
 29 30  2  0
 29 31  1  0
M  END
>  <Gold.Gold.Protein.RotatedWaterAtoms>  (34) 


>  <Gold.Id.Protein>  (34) 


>  <Gold.PLP.Chemscore.CHOScore>  (34) 
0.0000

>  <Gold.PLP.Chemscore.Hbond>  (34) 
1.2080

>  <Gold.PLP.Chemscore.Internal.Correction>  (34) 
0.1232

>  <Gold.PLP.Chemscore.Metal>  (34) 
0.0000

>  <Gold.PLP.Fitness>  (34) 
47.7145

>  <Gold.PLP.PLP>  (34) 
-46.0218

>  <Gold.PLP.ligand.clash>  (34) 
0.0000

>  <Gold.PLP.ligand.torsion>  (34) 
1.0272

>  <Gold.PLP.part.buried>  (34) 
-2.2958

>  <Gold.PLP.part.hbond>  (34) 
-4.0214

>  <Gold.PLP.part.metal>  (34) 
0.0000

>  <Gold.PLP.part.nonpolar>  (34) 
-41.4699

>  <Gold.PLP.part.repulsive>  (34) 
0.9524

>  <Gold.Protein.RotatedAtoms>  (34) 


>  <Gold.Protein.RotatedTorsions>  (34) 


>  <Gold.Protein.RotatedWaterAtoms>  (34) 


>  <Gold.Version>  (34) 
5.3.0

>  <PLP.Chemscore.CHOScore>  (34) 


>  <PLP.Chemscore.Hbond>  (34) 


>  <PLP.Chemscore.Internal.Correction>  (34) 


>  <PLP.Chemscore.Metal>  (34) 


>  <PLP.Fitness>  (34) 


>  <PLP.PLP>  (34) 


>  <PLP.ligand.clash>  (34) 


>  <PLP.ligand.torsion>  (34) 


>  <PLP.part.buried>  (34) 


>  <PLP.part.hbond>  (34) 


>  <PLP.part.metal>  (34) 


>  <PLP.part.nonpolar>  (34) 


>  <PLP.part.repulsive>  (34) 


>  <RMSD>  (34) 
0.291955871297

>  <Torsion>  (34) 
171.923704933

>  <TorsionO>  (34) 
6.03609353985

>  <TorsionR>  (34) 
177.959798473

>  <Version>  (34) 


>  <product>  (34) 
22|Compound_12|Compounds_3D_F|sdf|5|dock3|1

>  <rmsd>  (34) 
-1

$$$$
193|32168_281|Aromatic_primary_amines_F|sdf|39|dock6|1
     RDKit          3D

 23 25  0  0  0  0  0  0  0  0999 V2000
   -7.8439  -12.1461   11.8919 C   0  0  0  0  0  0  0  0  0  0  0  0
   -8.5691  -13.4472   11.6781 C   0  0  0  0  0  0  0  0  0  0  0  0
   -9.7886  -13.4981   11.5208 O   0  0  0  0  0  0  0  0  0  0  0  0
   -7.7264  -14.5390   11.7020 N   0  0  0  0  0  0  0  0  0  0  0  0
   -8.1889  -15.8197   11.5323 C   0  0  0  0  0  0  0  0  0  0  0  0
   -9.4747  -16.2039   11.8163 N   0  0  0  0  0  0  0  0  0  0  0  0
   -9.5964  -17.5375   11.5379 C   0  0  0  0  0  0  0  0  0  0  0  0
  -10.6643  -18.4283   11.6415 C   0  0  0  0  0  0  0  0  0  0  0  0
  -10.4051  -19.7586   11.2778 C   0  0  0  0  0  0  0  0  0  0  0  0
   -9.1530  -20.1507   10.7795 C   0  0  0  0  0  0  0  0  0  0  0  0
   -8.1017  -19.2294   10.6839 C   0  0  0  0  0  0  0  0  0  0  0  0
   -8.3349  -17.9032   11.0783 C   0  0  0  0  0  0  0  0  0  0  0  0
   -7.4773  -16.8281   11.0838 N   0  0  0  0  0  0  0  0  0  0  0  0
   -8.8530  -21.7658   10.2429 Cl  0  0  0  0  0  0  0  0  0  0  0  0
  -11.4669  -20.6323   11.3734 O   0  0  0  0  0  0  0  0  0  0  0  0
  -12.5262  -20.4408   10.5053 C   0  0  0  0  0  0  0  0  0  0  0  0
  -13.3188  -19.2846   10.5304 C   0  0  0  0  0  0  0  0  0  0  0  0
  -14.3665  -19.1344    9.6224 C   0  0  0  0  0  0  0  0  0  0  0  0
  -14.6219  -20.1279    8.6796 C   0  0  0  0  0  0  0  0  0  0  0  0
  -13.8238  -21.2756    8.6345 C   0  0  0  0  0  0  0  0  0  0  0  0
  -12.7674  -21.4342    9.5416 C   0  0  0  0  0  0  0  0  0  0  0  0
  -11.7588  -22.8458    9.4996 Cl  0  0  0  0  0  0  0  0  0  0  0  0
  -14.1988  -22.4584    7.4296 Cl  0  0  0  0  0  0  0  0  0  0  0  0
  1  2  1  0
  2  3  2  0
  2  4  1  0
  4  5  1  0
  5  6  1  0
  5 13  2  0
  6  7  1  0
  7  8  2  0
  7 12  1  0
  8  9  1  0
  9 10  2  0
  9 15  1  0
 10 11  1  0
 10 14  1  0
 11 12  2  0
 12 13  1  0
 15 16  1  0
 16 17  2  0
 16 21  1  0
 17 18  1  0
 18 19  2  0
 19 20  1  0
 20 21  2  0
 20 23  1  0
 21 22  1  0
M  END
>  <Gold.Gold.Protein.RotatedWaterAtoms>  (35) 


>  <Gold.Id.Protein>  (35) 


>  <Gold.PLP.Chemscore.CHOScore>  (35) 
0.0000

>  <Gold.PLP.Chemscore.Hbond>  (35) 
1.0000

>  <Gold.PLP.Chemscore.Internal.Correction>  (35) 
0.0086

>  <Gold.PLP.Chemscore.Metal>  (35) 
0.0000

>  <Gold.PLP.Fitness>  (35) 
50.7139

>  <Gold.PLP.PLP>  (35) 
-48.1706

>  <Gold.PLP.ligand.clash>  (35) 
0.0000

>  <Gold.PLP.ligand.torsion>  (35) 
0.2327

>  <Gold.PLP.part.buried>  (35) 
-6.5205

>  <Gold.PLP.part.hbond>  (35) 
-2.0000

>  <Gold.PLP.part.metal>  (35) 
0.0000

>  <Gold.PLP.part.nonpolar>  (35) 
-39.3857

>  <Gold.PLP.part.repulsive>  (35) 
0.3298

>  <Gold.Protein.RotatedAtoms>  (35) 


>  <Gold.Protein.RotatedTorsions>  (35) 


>  <Gold.Protein.RotatedWaterAtoms>  (35) 


>  <Gold.Version>  (35) 
5.3.0

>  <PLP.Chemscore.CHOScore>  (35) 


>  <PLP.Chemscore.Hbond>  (35) 


>  <PLP.Chemscore.Internal.Correction>  (35) 


>  <PLP.Chemscore.Metal>  (35) 


>  <PLP.Fitness>  (35) 


>  <PLP.PLP>  (35) 


>  <PLP.ligand.clash>  (35) 


>  <PLP.ligand.torsion>  (35) 


>  <PLP.part.buried>  (35) 


>  <PLP.part.hbond>  (35) 


>  <PLP.part.metal>  (35) 


>  <PLP.part.nonpolar>  (35) 


>  <PLP.part.repulsive>  (35) 


>  <RMSD>  (35) 
0.439733510035

>  <Torsion>  (35) 
177.672185574

>  <TorsionO>  (35) 
4.31728583372

>  <TorsionR>  (35) 
173.35489974

>  <Version>  (35) 


>  <product>  (35) 
22|Compound_12|Compounds_3D_F|sdf|5|dock3|1

>  <rmsd>  (35) 
-1

$$$$
51|Compound_23|Compounds_3D_F|sdf|9|dock6|1
     RDKit          3D

 11 10  0  0  0  0  0  0  0  0999 V2000
   -2.8447  -16.3585   10.0116 O   0  0  0  0  0  0  0  0  0  0  0  0
   -3.5746  -16.8966   11.0003 C   0  0  0  0  0  0  0  0  0  0  0  0
   -3.2040  -17.9114   11.5427 O   0  0  0  0  0  0  0  0  0  0  0  0
   -4.8579  -16.2365   11.4350 C   0  0  0  0  0  0  0  0  0  0  0  0
   -4.5855  -14.8512   11.8262 N   0  0  0  0  0  0  0  0  0  0  0  0
   -5.5991  -14.0446   12.1998 C   0  0  0  0  0  0  0  0  0  0  0  0
   -6.7357  -14.4661   12.2130 O   0  0  0  0  0  0  0  0  0  0  0  0
   -5.3068  -12.5604   12.6191 B   0  0  0  0  0  0  0  0  0  0  0  0
   -5.4443  -16.9965   12.6262 C   0  0  0  0  0  0  0  0  0  0  0  0
   -5.8582  -16.2526   10.2769 C   0  0  0  0  0  0  0  0  0  0  0  0
   -5.2779  -15.6133    9.1387 O   0  0  0  0  0  0  0  0  0  0  0  0
  1  2  1  0
  2  3  2  0
  2  4  1  0
  4  5  1  0
  4  9  1  0
  4 10  1  0
  5  6  1  0
  6  7  2  0
  6  8  1  0
 10 11  1  0
M  END
>  <Gold.Gold.Protein.RotatedWaterAtoms>  (36) 


>  <Gold.Id.Protein>  (36) 


>  <Gold.PLP.Chemscore.CHOScore>  (36) 
0.0000

>  <Gold.PLP.Chemscore.Hbond>  (36) 
3.7393

>  <Gold.PLP.Chemscore.Internal.Correction>  (36) 
0.0003

>  <Gold.PLP.Chemscore.Metal>  (36) 
0.0000

>  <Gold.PLP.Fitness>  (36) 
37.0411

>  <Gold.PLP.PLP>  (36) 
-25.9409

>  <Gold.PLP.ligand.clash>  (36) 
0.0000

>  <Gold.PLP.ligand.torsion>  (36) 
0.0589

>  <Gold.PLP.part.buried>  (36) 
-4.3616

>  <Gold.PLP.part.hbond>  (36) 
-4.7071

>  <Gold.PLP.part.metal>  (36) 
0.0000

>  <Gold.PLP.part.nonpolar>  (36) 
-18.6025

>  <Gold.PLP.part.repulsive>  (36) 
0.3218

>  <Gold.Protein.RotatedAtoms>  (36) 


>  <Gold.Protein.RotatedTorsions>  (36) 


>  <Gold.Protein.RotatedWaterAtoms>  (36) 


>  <Gold.Version>  (36) 
5.3.0

>  <PLP.Chemscore.CHOScore>  (36) 


>  <PLP.Chemscore.Hbond>  (36) 


>  <PLP.Chemscore.Internal.Correction>  (36) 


>  <PLP.Chemscore.Metal>  (36) 


>  <PLP.Fitness>  (36) 


>  <PLP.PLP>  (36) 


>  <PLP.ligand.clash>  (36) 


>  <PLP.ligand.torsion>  (36) 


>  <PLP.part.buried>  (36) 


>  <PLP.part.hbond>  (36) 


>  <PLP.part.metal>  (36) 


>  <PLP.part.nonpolar>  (36) 


>  <PLP.part.repulsive>  (36) 


>  <Version>  (36) 


$$$$
94|664022_40|Aromatic_carboxylic_acids_F|sdf|24|dock1|1
     RDKit          3D

 12 12  0  0  0  0  0  0  0  0999 V2000
   -8.2596  -17.1212   11.4595 C   0  0  0  0  0  0  0  0  0  0  0  0
   -7.6366  -15.8367   11.6688 N   0  0  0  0  0  0  0  0  0  0  0  0
   -8.3409  -14.6553   11.5719 C   0  0  0  0  0  0  0  0  0  0  0  0
   -9.5296  -14.5547   11.2978 O   0  0  0  0  0  0  0  0  0  0  0  0
   -7.5420  -13.4431   11.8503 C   0  0  0  0  0  0  0  0  0  0  0  0
   -8.1627  -12.1983   11.6738 C   0  0  0  0  0  0  0  0  0  0  0  0
   -7.4390  -11.0301   11.9055 C   0  0  0  0  0  0  0  0  0  0  0  0
   -6.1069  -11.0910   12.3103 C   0  0  0  0  0  0  0  0  0  0  0  0
   -5.4897  -12.3324   12.4853 C   0  0  0  0  0  0  0  0  0  0  0  0
   -6.2035  -13.5136   12.2549 C   0  0  0  0  0  0  0  0  0  0  0  0
   -5.3062  -15.1564   12.5638 Br  0  0  0  0  0  0  0  0  0  0  0  0
   -8.1960   -9.5005   11.6887 Cl  0  0  0  0  0  0  0  0  0  0  0  0
  1  2  1  0
  2  3  1  0
  3  4  2  0
  3  5  1  0
  5  6  2  0
  5 10  1  0
  6  7  1  0
  7  8  2  0
  7 12  1  0
  8  9  1  0
  9 10  2  0
 10 11  1  0
M  END
>  <Gold.Gold.Protein.RotatedWaterAtoms>  (37) 


>  <Gold.Id.Protein>  (37) 


>  <Gold.PLP.Chemscore.CHOScore>  (37) 
0.0000

>  <Gold.PLP.Chemscore.Hbond>  (37) 
0.4160

>  <Gold.PLP.Chemscore.Internal.Correction>  (37) 
0.0004

>  <Gold.PLP.Chemscore.Metal>  (37) 
0.0000

>  <Gold.PLP.Fitness>  (37) 
48.9046

>  <Gold.PLP.PLP>  (37) 
-47.6744

>  <Gold.PLP.ligand.clash>  (37) 
0.0000

>  <Gold.PLP.ligand.torsion>  (37) 
0.0091

>  <Gold.PLP.part.buried>  (37) 
-7.3578

>  <Gold.PLP.part.hbond>  (37) 
-0.5127

>  <Gold.PLP.part.metal>  (37) 
0.0000

>  <Gold.PLP.part.nonpolar>  (37) 
-40.3098

>  <Gold.PLP.part.repulsive>  (37) 
0.1684

>  <Gold.Protein.RotatedAtoms>  (37) 


>  <Gold.Protein.RotatedTorsions>  (37) 


>  <Gold.Protein.RotatedWaterAtoms>  (37) 


>  <Gold.Version>  (37) 
5.3.0

>  <PLP.Chemscore.CHOScore>  (37) 


>  <PLP.Chemscore.Hbond>  (37) 


>  <PLP.Chemscore.Internal.Correction>  (37) 


>  <PLP.Chemscore.Metal>  (37) 


>  <PLP.Fitness>  (37) 


>  <PLP.PLP>  (37) 


>  <PLP.ligand.clash>  (37) 


>  <PLP.ligand.torsion>  (37) 


>  <PLP.part.buried>  (37) 


>  <PLP.part.hbond>  (37) 


>  <PLP.part.metal>  (37) 


>  <PLP.part.nonpolar>  (37) 


>  <PLP.part.repulsive>  (37) 


>  <RMSD>  (37) 
0.30972197429

>  <Torsion>  (37) 
172.929186758

>  <TorsionO>  (37) 
24.4968065243

>  <TorsionR>  (37) 
162.574006718

>  <Version>  (37) 


>  <product>  (37) 
51|Compound_23|Compounds_3D_F|sdf|9|dock6|1

>  <rmsd>  (37) 
-1

$$$$
110|565385_49|Aromatic_carboxylic_acids_F|sdf|29|dock1|1
     RDKit          3D

 13 13  0  0  0  0  0  0  0  0999 V2000
  -10.1118  -17.9021   11.6320 C   0  0  0  0  0  0  0  0  0  0  0  0
   -9.7537  -16.5043   11.6546 N   0  0  0  0  0  0  0  0  0  0  0  0
   -8.4330  -16.1187   11.7930 C   0  0  0  0  0  0  0  0  0  0  0  0
   -7.5159  -16.9298   11.9008 O   0  0  0  0  0  0  0  0  0  0  0  0
   -8.1234  -14.6552   11.8105 C   0  0  0  0  0  0  0  0  0  0  0  0
   -9.0636  -13.6551   11.5375 C   0  0  0  0  0  0  0  0  0  0  0  0
   -8.6966  -12.3009   11.5726 C   0  0  0  0  0  0  0  0  0  0  0  0
   -7.3879  -11.9195   11.8809 C   0  0  0  0  0  0  0  0  0  0  0  0
   -6.4486  -12.9235   12.1551 C   0  0  0  0  0  0  0  0  0  0  0  0
   -6.8098  -14.2750   12.1207 C   0  0  0  0  0  0  0  0  0  0  0  0
   -4.6444  -12.5025   12.5849 Br  0  0  0  0  0  0  0  0  0  0  0  0
   -6.9476  -10.6242   11.9372 O   0  0  0  0  0  0  0  0  0  0  0  0
   -7.9020   -9.5910   11.7256 C   0  0  0  0  0  0  0  0  0  0  0  0
  1  2  1  0
  2  3  1  0
  3  4  2  0
  3  5  1  0
  5  6  2  0
  5 10  1  0
  6  7  1  0
  7  8  2  0
  8  9  1  0
  8 12  1  0
  9 10  2  0
  9 11  1  0
 12 13  1  0
M  END
>  <Gold.Gold.Protein.RotatedWaterAtoms>  (38) 


>  <Gold.Id.Protein>  (38) 


>  <Gold.PLP.Chemscore.CHOScore>  (38) 
0.0000

>  <Gold.PLP.Chemscore.Hbond>  (38) 
1.0000

>  <Gold.PLP.Chemscore.Internal.Correction>  (38) 
0.0000

>  <Gold.PLP.Chemscore.Metal>  (38) 
0.0000

>  <Gold.PLP.Fitness>  (38) 
43.9775

>  <Gold.PLP.PLP>  (38) 
-41.0517

>  <Gold.PLP.ligand.clash>  (38) 
0.0000

>  <Gold.PLP.ligand.torsion>  (38) 
0.0371

>  <Gold.PLP.part.buried>  (38) 
-3.7367

>  <Gold.PLP.part.hbond>  (38) 
-1.0000

>  <Gold.PLP.part.metal>  (38) 
0.0000

>  <Gold.PLP.part.nonpolar>  (38) 
-36.7483

>  <Gold.PLP.part.repulsive>  (38) 
0.4054

>  <Gold.Protein.RotatedAtoms>  (38) 


>  <Gold.Protein.RotatedTorsions>  (38) 


>  <Gold.Protein.RotatedWaterAtoms>  (38) 


>  <Gold.Version>  (38) 
5.3.0

>  <PLP.Chemscore.CHOScore>  (38) 


>  <PLP.Chemscore.Hbond>  (38) 


>  <PLP.Chemscore.Internal.Correction>  (38) 


>  <PLP.Chemscore.Metal>  (38) 


>  <PLP.Fitness>  (38) 


>  <PLP.PLP>  (38) 


>  <PLP.ligand.clash>  (38) 


>  <PLP.ligand.torsion>  (38) 


>  <PLP.part.buried>  (38) 


>  <PLP.part.hbond>  (38) 


>  <PLP.part.metal>  (38) 


>  <PLP.part.nonpolar>  (38) 


>  <PLP.part.repulsive>  (38) 


>  <RMSD>  (38) 
0.319376411377

>  <Torsion>  (38) 
169.460450784

>  <TorsionO>  (38) 
9.7963905484

>  <TorsionR>  (38) 
179.256841332

>  <Version>  (38) 


>  <product>  (38) 
51|Compound_23|Compounds_3D_F|sdf|9|dock6|1

>  <rmsd>  (38) 
-1

$$$$
128|137677_56|Aromatic_carboxylic_acids_F|sdf|33|dock1|1
     RDKit          3D

 11 11  0  0  0  0  0  0  0  0999 V2000
   -8.6116  -16.1544   11.8887 C   0  0  0  0  0  0  0  0  0  0  0  0
   -7.9978  -14.8484   11.9215 N   0  0  0  0  0  0  0  0  0  0  0  0
   -8.7778  -13.7008   11.8756 C   0  0  0  0  0  0  0  0  0  0  0  0
  -10.0002  -13.7896   11.8139 O   0  0  0  0  0  0  0  0  0  0  0  0
   -8.0808  -12.3609   11.9017 C   0  0  0  0  0  0  0  0  0  0  0  0
   -8.7916  -11.1851   11.5813 C   0  0  0  0  0  0  0  0  0  0  0  0
   -8.1781   -9.9267   11.5989 C   0  0  0  0  0  0  0  0  0  0  0  0
   -6.8391   -9.8089   11.9369 C   0  0  0  0  0  0  0  0  0  0  0  0
   -6.1124  -10.9502   12.2575 C   0  0  0  0  0  0  0  0  0  0  0  0
   -6.7171  -12.2196   12.2428 C   0  0  0  0  0  0  0  0  0  0  0  0
   -5.5419  -13.6455   12.7121 Br  0  0  0  0  0  0  0  0  0  0  0  0
  1  2  1  0
  2  3  1  0
  3  4  2  0
  3  5  1  0
  5  6  2  0
  5 10  1  0
  6  7  1  0
  7  8  2  0
  8  9  1  0
  9 10  2  0
 10 11  1  0
M  END
>  <Gold.Gold.Protein.RotatedWaterAtoms>  (39) 


>  <Gold.Id.Protein>  (39) 


>  <Gold.PLP.Chemscore.CHOScore>  (39) 
0.0000

>  <Gold.PLP.Chemscore.Hbond>  (39) 
1.0000

>  <Gold.PLP.Chemscore.Internal.Correction>  (39) 
0.0000

>  <Gold.PLP.Chemscore.Metal>  (39) 
0.0000

>  <Gold.PLP.Fitness>  (39) 
45.2899

>  <Gold.PLP.PLP>  (39) 
-42.4444

>  <Gold.PLP.ligand.clash>  (39) 
0.0000

>  <Gold.PLP.ligand.torsion>  (39) 
0.0772

>  <Gold.PLP.part.buried>  (39) 
-6.4690

>  <Gold.PLP.part.hbond>  (39) 
-0.6863

>  <Gold.PLP.part.metal>  (39) 
0.0000

>  <Gold.PLP.part.nonpolar>  (39) 
-34.8280

>  <Gold.PLP.part.repulsive>  (39) 
0.1963

>  <Gold.Protein.RotatedAtoms>  (39) 


>  <Gold.Protein.RotatedTorsions>  (39) 


>  <Gold.Protein.RotatedWaterAtoms>  (39) 


>  <Gold.Version>  (39) 
5.3.0

>  <PLP.Chemscore.CHOScore>  (39) 


>  <PLP.Chemscore.Hbond>  (39) 


>  <PLP.Chemscore.Internal.Correction>  (39) 


>  <PLP.Chemscore.Metal>  (39) 


>  <PLP.Fitness>  (39) 


>  <PLP.PLP>  (39) 


>  <PLP.ligand.clash>  (39) 


>  <PLP.ligand.torsion>  (39) 


>  <PLP.part.buried>  (39) 


>  <PLP.part.hbond>  (39) 


>  <PLP.part.metal>  (39) 


>  <PLP.part.nonpolar>  (39) 


>  <PLP.part.repulsive>  (39) 


>  <RMSD>  (39) 
0.428070490903

>  <Torsion>  (39) 
152.444048788

>  <TorsionO>  (39) 
39.0580871276

>  <TorsionR>  (39) 
168.497864085

>  <Version>  (39) 


>  <product>  (39) 
51|Compound_23|Compounds_3D_F|sdf|9|dock6|1

>  <rmsd>  (39) 
-1

$$$$
974|750794_1404|Aromatic_primary_amines_F|sdf|194|dock3|1
     RDKit          3D

 14 14  0  0  0  0  0  0  0  0999 V2000
  -13.6355  -18.1936    9.4145 C   0  0  0  0  0  0  0  0  0  0  0  0
  -13.2544  -19.4497   10.1732 C   0  0  0  0  0  0  0  0  0  0  0  0
  -11.8731  -19.3506   10.5383 O   0  0  0  0  0  0  0  0  0  0  0  0
  -11.6148  -18.5085   11.5823 C   0  0  0  0  0  0  0  0  0  0  0  0
  -12.3947  -18.2810   12.5004 O   0  0  0  0  0  0  0  0  0  0  0  0
  -10.3031  -17.8985   11.4902 C   0  0  0  0  0  0  0  0  0  0  0  0
   -9.1673  -18.4974   10.9931 C   0  0  0  0  0  0  0  0  0  0  0  0
   -8.1448  -17.6055   11.0758 O   0  0  0  0  0  0  0  0  0  0  0  0
   -8.7110  -16.4917   11.6237 C   0  0  0  0  0  0  0  0  0  0  0  0
   -9.9933  -16.6110   11.8915 N   0  0  0  0  0  0  0  0  0  0  0  0
   -7.9611  -15.3718   11.8549 N   0  0  0  0  0  0  0  0  0  0  0  0
   -8.5046  -14.1249   12.0676 C   0  0  0  0  0  0  0  0  0  0  0  0
   -9.6950  -13.8313   12.1035 O   0  0  0  0  0  0  0  0  0  0  0  0
   -7.4448  -13.0785   12.3021 C   0  0  0  0  0  0  0  0  0  0  0  0
  1  2  1  0
  2  3  1  0
  3  4  1  0
  4  5  2  0
  4  6  1  0
  6  7  2  0
  6 10  1  0
  7  8  1  0
  8  9  1  0
  9 10  2  0
  9 11  1  0
 11 12  1  0
 12 13  2  0
 12 14  1  0
M  END
>  <Gold.Gold.Protein.RotatedWaterAtoms>  (40) 


>  <Gold.Id.Protein>  (40) 


>  <Gold.PLP.Chemscore.CHOScore>  (40) 
0.0000

>  <Gold.PLP.Chemscore.Hbond>  (40) 
2.0000

>  <Gold.PLP.Chemscore.Internal.Correction>  (40) 
0.0053

>  <Gold.PLP.Chemscore.Metal>  (40) 
0.0000

>  <Gold.PLP.Fitness>  (40) 
36.8047

>  <Gold.PLP.PLP>  (40) 
-32.7996

>  <Gold.PLP.ligand.clash>  (40) 
0.0000

>  <Gold.PLP.ligand.torsion>  (40) 
1.0001

>  <Gold.PLP.part.buried>  (40) 
-6.5206

>  <Gold.PLP.part.hbond>  (40) 
-2.9156

>  <Gold.PLP.part.metal>  (40) 
0.0000

>  <Gold.PLP.part.nonpolar>  (40) 
-23.4080

>  <Gold.PLP.part.repulsive>  (40) 
0.3100

>  <Gold.Protein.RotatedAtoms>  (40) 


>  <Gold.Protein.RotatedTorsions>  (40) 


>  <Gold.Protein.RotatedWaterAtoms>  (40) 


>  <Gold.Version>  (40) 
5.3.0

>  <PLP.Chemscore.CHOScore>  (40) 


>  <PLP.Chemscore.Hbond>  (40) 


>  <PLP.Chemscore.Internal.Correction>  (40) 


>  <PLP.Chemscore.Metal>  (40) 


>  <PLP.Fitness>  (40) 


>  <PLP.PLP>  (40) 


>  <PLP.ligand.clash>  (40) 


>  <PLP.ligand.torsion>  (40) 


>  <PLP.part.buried>  (40) 


>  <PLP.part.hbond>  (40) 


>  <PLP.part.metal>  (40) 


>  <PLP.part.nonpolar>  (40) 


>  <PLP.part.repulsive>  (40) 


>  <RMSD>  (40) 
0.499949349045

>  <Torsion>  (40) 
159.973716791

>  <TorsionO>  (40) 
19.1052109979

>  <TorsionR>  (40) 
179.078927789

>  <Version>  (40) 


>  <product>  (40) 
51|Compound_23|Compounds_3D_F|sdf|9|dock6|1

>  <rmsd>  (40) 
-1

$$$$
1884|M3006_1781|Aromatic_primary_amines_F|sdf|361|dock3|1
     RDKit          3D

 31 34  0  0  0  0  0  0  0  0999 V2000
  -14.4210  -19.8971    8.7934 C   0  0  0  0  0  0  0  0  0  0  0  0
  -13.9762  -19.4927   10.1894 C   0  0  0  0  0  0  0  0  0  0  0  0
  -14.1356  -20.6409   11.1817 C   0  0  0  0  0  0  0  0  0  0  0  0
  -13.5197  -20.3070   12.5189 C   0  0  0  0  0  0  0  0  0  0  0  0
  -12.9307  -19.2724   12.7954 O   0  0  0  0  0  0  0  0  0  0  0  0
  -13.7110  -21.3451   13.3845 O   0  0  0  0  0  0  0  0  0  0  0  0
  -12.9425  -21.2698   14.5900 C   0  0  0  0  0  0  0  0  0  0  0  0
  -12.8849  -22.6189   15.2889 C   0  0  0  0  0  0  0  0  0  0  0  0
  -11.6552  -22.4172   16.1494 C   0  0  0  0  0  0  0  0  0  0  0  0
  -11.2420  -23.7410   16.7624 C   0  0  0  0  0  0  0  0  0  0  0  0
  -12.3024  -24.2223   17.5862 O   0  0  0  0  0  0  0  0  0  0  0  0
  -13.7888  -24.3384   16.9603 P   0  0  0  0  0  0  0  0  0  0  0  0
  -14.8775  -24.6795   17.9243 O   0  0  0  0  0  0  0  0  0  0  0  0
  -13.9839  -22.9641   16.1174 O   0  0  0  0  0  0  0  0  0  0  0  0
  -13.5991  -25.4435   15.8075 O   0  0  0  0  0  0  0  0  0  0  0  0
  -10.6922  -21.8161   15.2889 O   0  0  0  0  0  0  0  0  0  0  0  0
  -11.4338  -20.9664   14.3653 C   0  0  0  0  0  0  0  0  0  0  0  0
  -10.9052  -21.2017   13.0342 N   0  0  0  0  0  0  0  0  0  0  0  0
  -10.7814  -22.4114   12.4013 C   0  0  0  0  0  0  0  0  0  0  0  0
  -10.2640  -22.2918   11.1953 N   0  0  0  0  0  0  0  0  0  0  0  0
  -10.0274  -20.9476   11.0424 C   0  0  0  0  0  0  0  0  0  0  0  0
  -10.4203  -20.2487   12.1733 C   0  0  0  0  0  0  0  0  0  0  0  0
  -10.3338  -18.9216   12.3641 N   0  0  0  0  0  0  0  0  0  0  0  0
   -9.8057  -18.2730   11.3024 C   0  0  0  0  0  0  0  0  0  0  0  0
   -9.3808  -18.8370   10.1545 N   0  0  0  0  0  0  0  0  0  0  0  0
   -9.4895  -20.1691   10.0244 C   0  0  0  0  0  0  0  0  0  0  0  0
   -9.0330  -20.6622    8.8349 O   0  0  0  0  0  0  0  0  0  0  0  0
   -9.7222  -16.8901   11.4793 N   0  0  0  0  0  0  0  0  0  0  0  0
   -8.5796  -16.1798   11.7761 C   0  0  0  0  0  0  0  0  0  0  0  0
   -7.4445  -16.6221   11.9131 O   0  0  0  0  0  0  0  0  0  0  0  0
   -8.8524  -14.7024   11.8973 C   0  0  0  0  0  0  0  0  0  0  0  0
  1  2  1  0
  2  3  1  0
  3  4  1  0
  4  5  2  0
  4  6  1  0
  6  7  1  0
  7  8  1  0
  7 17  1  0
  8  9  1  0
  8 14  1  0
  9 10  1  0
  9 16  1  0
 10 11  1  0
 11 12  1  0
 12 13  2  0
 12 14  1  0
 12 15  1  0
 16 17  1  0
 17 18  1  0
 18 19  1  0
 18 22  1  0
 19 20  2  0
 20 21  1  0
 21 22  2  0
 21 26  1  0
 22 23  1  0
 23 24  2  0
 24 25  1  0
 24 28  1  0
 25 26  2  0
 26 27  1  0
 28 29  1  0
 29 30  2  0
 29 31  1  0
M  END
>  <Gold.Gold.Protein.RotatedWaterAtoms>  (41) 


>  <Gold.Id.Protein>  (41) 


>  <Gold.PLP.Chemscore.CHOScore>  (41) 
0.0000

>  <Gold.PLP.Chemscore.Hbond>  (41) 
1.2080

>  <Gold.PLP.Chemscore.Internal.Correction>  (41) 
0.1232

>  <Gold.PLP.Chemscore.Metal>  (41) 
0.0000

>  <Gold.PLP.Fitness>  (41) 
47.7145

>  <Gold.PLP.PLP>  (41) 
-46.0218

>  <Gold.PLP.ligand.clash>  (41) 
0.0000

>  <Gold.PLP.ligand.torsion>  (41) 
1.0272

>  <Gold.PLP.part.buried>  (41) 
-2.2958

>  <Gold.PLP.part.hbond>  (41) 
-4.0214

>  <Gold.PLP.part.metal>  (41) 
0.0000

>  <Gold.PLP.part.nonpolar>  (41) 
-41.4699

>  <Gold.PLP.part.repulsive>  (41) 
0.9524

>  <Gold.Protein.RotatedAtoms>  (41) 


>  <Gold.Protein.RotatedTorsions>  (41) 


>  <Gold.Protein.RotatedWaterAtoms>  (41) 


>  <Gold.Version>  (41) 
5.3.0

>  <PLP.Chemscore.CHOScore>  (41) 


>  <PLP.Chemscore.Hbond>  (41) 


>  <PLP.Chemscore.Internal.Correction>  (41) 


>  <PLP.Chemscore.Metal>  (41) 


>  <PLP.Fitness>  (41) 


>  <PLP.PLP>  (41) 


>  <PLP.ligand.clash>  (41) 


>  <PLP.ligand.torsion>  (41) 


>  <PLP.part.buried>  (41) 


>  <PLP.part.hbond>  (41) 


>  <PLP.part.metal>  (41) 


>  <PLP.part.nonpolar>  (41) 


>  <PLP.part.repulsive>  (41) 


>  <RMSD>  (41) 
0.291955871297

>  <Torsion>  (41) 
171.923704933

>  <TorsionO>  (41) 
6.03609353985

>  <TorsionR>  (41) 
177.959798473

>  <Version>  (41) 


>  <product>  (41) 
51|Compound_23|Compounds_3D_F|sdf|9|dock6|1

>  <rmsd>  (41) 
-1

$$$$
193|32168_281|Aromatic_primary_amines_F|sdf|39|dock6|1
     RDKit          3D

 23 25  0  0  0  0  0  0  0  0999 V2000
   -7.8439  -12.1461   11.8919 C   0  0  0  0  0  0  0  0  0  0  0  0
   -8.5691  -13.4472   11.6781 C   0  0  0  0  0  0  0  0  0  0  0  0
   -9.7886  -13.4981   11.5208 O   0  0  0  0  0  0  0  0  0  0  0  0
   -7.7264  -14.5390   11.7020 N   0  0  0  0  0  0  0  0  0  0  0  0
   -8.1889  -15.8197   11.5323 C   0  0  0  0  0  0  0  0  0  0  0  0
   -9.4747  -16.2039   11.8163 N   0  0  0  0  0  0  0  0  0  0  0  0
   -9.5964  -17.5375   11.5379 C   0  0  0  0  0  0  0  0  0  0  0  0
  -10.6643  -18.4283   11.6415 C   0  0  0  0  0  0  0  0  0  0  0  0
  -10.4051  -19.7586   11.2778 C   0  0  0  0  0  0  0  0  0  0  0  0
   -9.1530  -20.1507   10.7795 C   0  0  0  0  0  0  0  0  0  0  0  0
   -8.1017  -19.2294   10.6839 C   0  0  0  0  0  0  0  0  0  0  0  0
   -8.3349  -17.9032   11.0783 C   0  0  0  0  0  0  0  0  0  0  0  0
   -7.4773  -16.8281   11.0838 N   0  0  0  0  0  0  0  0  0  0  0  0
   -8.8530  -21.7658   10.2429 Cl  0  0  0  0  0  0  0  0  0  0  0  0
  -11.4669  -20.6323   11.3734 O   0  0  0  0  0  0  0  0  0  0  0  0
  -12.5262  -20.4408   10.5053 C   0  0  0  0  0  0  0  0  0  0  0  0
  -13.3188  -19.2846   10.5304 C   0  0  0  0  0  0  0  0  0  0  0  0
  -14.3665  -19.1344    9.6224 C   0  0  0  0  0  0  0  0  0  0  0  0
  -14.6219  -20.1279    8.6796 C   0  0  0  0  0  0  0  0  0  0  0  0
  -13.8238  -21.2756    8.6345 C   0  0  0  0  0  0  0  0  0  0  0  0
  -12.7674  -21.4342    9.5416 C   0  0  0  0  0  0  0  0  0  0  0  0
  -11.7588  -22.8458    9.4996 Cl  0  0  0  0  0  0  0  0  0  0  0  0
  -14.1988  -22.4584    7.4296 Cl  0  0  0  0  0  0  0  0  0  0  0  0
  1  2  1  0
  2  3  2  0
  2  4  1  0
  4  5  1  0
  5  6  1  0
  5 13  2  0
  6  7  1  0
  7  8  2  0
  7 12  1  0
  8  9  1  0
  9 10  2  0
  9 15  1  0
 10 11  1  0
 10 14  1  0
 11 12  2  0
 12 13  1  0
 15 16  1  0
 16 17  2  0
 16 21  1  0
 17 18  1  0
 18 19  2  0
 19 20  1  0
 20 21  2  0
 20 23  1  0
 21 22  1  0
M  END
>  <Gold.Gold.Protein.RotatedWaterAtoms>  (42) 


>  <Gold.Id.Protein>  (42) 


>  <Gold.PLP.Chemscore.CHOScore>  (42) 
0.0000

>  <Gold.PLP.Chemscore.Hbond>  (42) 
1.0000

>  <Gold.PLP.Chemscore.Internal.Correction>  (42) 
0.0086

>  <Gold.PLP.Chemscore.Metal>  (42) 
0.0000

>  <Gold.PLP.Fitness>  (42) 
50.7139

>  <Gold.PLP.PLP>  (42) 
-48.1706

>  <Gold.PLP.ligand.clash>  (42) 
0.0000

>  <Gold.PLP.ligand.torsion>  (42) 
0.2327

>  <Gold.PLP.part.buried>  (42) 
-6.5205

>  <Gold.PLP.part.hbond>  (42) 
-2.0000

>  <Gold.PLP.part.metal>  (42) 
0.0000

>  <Gold.PLP.part.nonpolar>  (42) 
-39.3857

>  <Gold.PLP.part.repulsive>  (42) 
0.3298

>  <Gold.Protein.RotatedAtoms>  (42) 


>  <Gold.Protein.RotatedTorsions>  (42) 


>  <Gold.Protein.RotatedWaterAtoms>  (42) 


>  <Gold.Version>  (42) 
5.3.0

>  <PLP.Chemscore.CHOScore>  (42) 


>  <PLP.Chemscore.Hbond>  (42) 


>  <PLP.Chemscore.Internal.Correction>  (42) 


>  <PLP.Chemscore.Metal>  (42) 


>  <PLP.Fitness>  (42) 


>  <PLP.PLP>  (42) 


>  <PLP.ligand.clash>  (42) 


>  <PLP.ligand.torsion>  (42) 


>  <PLP.part.buried>  (42) 


>  <PLP.part.hbond>  (42) 


>  <PLP.part.metal>  (42) 


>  <PLP.part.nonpolar>  (42) 


>  <PLP.part.repulsive>  (42) 


>  <RMSD>  (42) 
0.439733510035

>  <Torsion>  (42) 
177.672185574

>  <TorsionO>  (42) 
4.31728583372

>  <TorsionR>  (42) 
173.35489974

>  <Version>  (42) 


>  <product>  (42) 
51|Compound_23|Compounds_3D_F|sdf|9|dock6|1

>  <rmsd>  (42) 
-1

$$$$
92|Compound_34|Compounds_3D_F|sdf|15|dock3|1
     RDKit          3D

 10  9  0  0  0  0  0  0  0  0999 V2000
   -4.3462  -12.2085   13.0990 O   0  0  0  0  0  0  0  0  0  0  0  0
   -5.4929  -12.5672   12.5024 C   0  0  0  0  0  0  0  0  0  0  0  0
   -6.2008  -11.7275   11.9971 O   0  0  0  0  0  0  0  0  0  0  0  0
   -5.9001  -14.0178   12.4624 C   0  0  0  0  0  0  0  0  0  0  0  0
   -4.8281  -14.8104   11.8548 N   0  0  0  0  0  0  0  0  0  0  0  0
   -4.7650  -16.1390   12.0737 C   0  0  0  0  0  0  0  0  0  0  0  0
   -5.5948  -16.6782   12.7736 O   0  0  0  0  0  0  0  0  0  0  0  0
   -3.6159  -16.9872   11.4230 B   0  0  0  0  0  0  0  0  0  0  0  0
   -7.1771  -14.1666   11.6324 C   0  0  0  0  0  0  0  0  0  0  0  0
   -8.2330  -13.4241   12.2456 O   0  0  0  0  0  0  0  0  0  0  0  0
  1  2  1  0
  2  3  2  0
  2  4  1  0
  4  5  1  0
  4  9  1  0
  5  6  1  0
  6  7  2  0
  6  8  1  0
  9 10  1  0
M  END
>  <Gold.Gold.Protein.RotatedWaterAtoms>  (43) 


>  <Gold.Id.Protein>  (43) 


>  <Gold.PLP.Chemscore.CHOScore>  (43) 
0.0000

>  <Gold.PLP.Chemscore.Hbond>  (43) 
1.9440

>  <Gold.PLP.Chemscore.Internal.Correction>  (43) 
0.0005

>  <Gold.PLP.Chemscore.Metal>  (43) 
0.0000

>  <Gold.PLP.Fitness>  (43) 
35.1810

>  <Gold.PLP.PLP>  (43) 
-30.0202

>  <Gold.PLP.ligand.clash>  (43) 
0.0000

>  <Gold.PLP.ligand.torsion>  (43) 
0.3359

>  <Gold.PLP.part.buried>  (43) 
-7.9999

>  <Gold.PLP.part.hbond>  (43) 
-4.5149

>  <Gold.PLP.part.metal>  (43) 
0.0000

>  <Gold.PLP.part.nonpolar>  (43) 
-17.5159

>  <Gold.PLP.part.repulsive>  (43) 
0.4307

>  <Gold.Protein.RotatedAtoms>  (43) 


>  <Gold.Protein.RotatedTorsions>  (43) 


>  <Gold.Protein.RotatedWaterAtoms>  (43) 


>  <Gold.Version>  (43) 
5.3.0

>  <PLP.Chemscore.CHOScore>  (43) 


>  <PLP.Chemscore.Hbond>  (43) 


>  <PLP.Chemscore.Internal.Correction>  (43) 


>  <PLP.Chemscore.Metal>  (43) 


>  <PLP.Fitness>  (43) 


>  <PLP.PLP>  (43) 


>  <PLP.ligand.clash>  (43) 


>  <PLP.ligand.torsion>  (43) 


>  <PLP.part.buried>  (43) 


>  <PLP.part.hbond>  (43) 


>  <PLP.part.metal>  (43) 


>  <PLP.part.nonpolar>  (43) 


>  <PLP.part.repulsive>  (43) 


>  <Version>  (43) 


$$$$
94|664022_40|Aromatic_carboxylic_acids_F|sdf|24|dock1|1
     RDKit          3D

 12 12  0  0  0  0  0  0  0  0999 V2000
   -8.2596  -17.1212   11.4595 C   0  0  0  0  0  0  0  0  0  0  0  0
   -7.6366  -15.8367   11.6688 N   0  0  0  0  0  0  0  0  0  0  0  0
   -8.3409  -14.6553   11.5719 C   0  0  0  0  0  0  0  0  0  0  0  0
   -9.5296  -14.5547   11.2978 O   0  0  0  0  0  0  0  0  0  0  0  0
   -7.5420  -13.4431   11.8503 C   0  0  0  0  0  0  0  0  0  0  0  0
   -8.1627  -12.1983   11.6738 C   0  0  0  0  0  0  0  0  0  0  0  0
   -7.4390  -11.0301   11.9055 C   0  0  0  0  0  0  0  0  0  0  0  0
   -6.1069  -11.0910   12.3103 C   0  0  0  0  0  0  0  0  0  0  0  0
   -5.4897  -12.3324   12.4853 C   0  0  0  0  0  0  0  0  0  0  0  0
   -6.2035  -13.5136   12.2549 C   0  0  0  0  0  0  0  0  0  0  0  0
   -5.3062  -15.1564   12.5638 Br  0  0  0  0  0  0  0  0  0  0  0  0
   -8.1960   -9.5005   11.6887 Cl  0  0  0  0  0  0  0  0  0  0  0  0
  1  2  1  0
  2  3  1  0
  3  4  2  0
  3  5  1  0
  5  6  2  0
  5 10  1  0
  6  7  1  0
  7  8  2  0
  7 12  1  0
  8  9  1  0
  9 10  2  0
 10 11  1  0
M  END
>  <Gold.Gold.Protein.RotatedWaterAtoms>  (44) 


>  <Gold.Id.Protein>  (44) 


>  <Gold.PLP.Chemscore.CHOScore>  (44) 
0.0000

>  <Gold.PLP.Chemscore.Hbond>  (44) 
0.4160

>  <Gold.PLP.Chemscore.Internal.Correction>  (44) 
0.0004

>  <Gold.PLP.Chemscore.Metal>  (44) 
0.0000

>  <Gold.PLP.Fitness>  (44) 
48.9046

>  <Gold.PLP.PLP>  (44) 
-47.6744

>  <Gold.PLP.ligand.clash>  (44) 
0.0000

>  <Gold.PLP.ligand.torsion>  (44) 
0.0091

>  <Gold.PLP.part.buried>  (44) 
-7.3578

>  <Gold.PLP.part.hbond>  (44) 
-0.5127

>  <Gold.PLP.part.metal>  (44) 
0.0000

>  <Gold.PLP.part.nonpolar>  (44) 
-40.3098

>  <Gold.PLP.part.repulsive>  (44) 
0.1684

>  <Gold.Protein.RotatedAtoms>  (44) 


>  <Gold.Protein.RotatedTorsions>  (44) 


>  <Gold.Protein.RotatedWaterAtoms>  (44) 


>  <Gold.Version>  (44) 
5.3.0

>  <PLP.Chemscore.CHOScore>  (44) 


>  <PLP.Chemscore.Hbond>  (44) 


>  <PLP.Chemscore.Internal.Correction>  (44) 


>  <PLP.Chemscore.Metal>  (44) 


>  <PLP.Fitness>  (44) 


>  <PLP.PLP>  (44) 


>  <PLP.ligand.clash>  (44) 


>  <PLP.ligand.torsion>  (44) 


>  <PLP.part.buried>  (44) 


>  <PLP.part.hbond>  (44) 


>  <PLP.part.metal>  (44) 


>  <PLP.part.nonpolar>  (44) 


>  <PLP.part.repulsive>  (44) 


>  <RMSD>  (44) 
0.30972197429

>  <Torsion>  (44) 
172.929186758

>  <TorsionO>  (44) 
24.4968065243

>  <TorsionR>  (44) 
162.574006718

>  <Version>  (44) 


>  <product>  (44) 
92|Compound_34|Compounds_3D_F|sdf|15|dock3|1

>  <rmsd>  (44) 
-1

$$$$
110|565385_49|Aromatic_carboxylic_acids_F|sdf|29|dock1|1
     RDKit          3D

 13 13  0  0  0  0  0  0  0  0999 V2000
  -10.1118  -17.9021   11.6320 C   0  0  0  0  0  0  0  0  0  0  0  0
   -9.7537  -16.5043   11.6546 N   0  0  0  0  0  0  0  0  0  0  0  0
   -8.4330  -16.1187   11.7930 C   0  0  0  0  0  0  0  0  0  0  0  0
   -7.5159  -16.9298   11.9008 O   0  0  0  0  0  0  0  0  0  0  0  0
   -8.1234  -14.6552   11.8105 C   0  0  0  0  0  0  0  0  0  0  0  0
   -9.0636  -13.6551   11.5375 C   0  0  0  0  0  0  0  0  0  0  0  0
   -8.6966  -12.3009   11.5726 C   0  0  0  0  0  0  0  0  0  0  0  0
   -7.3879  -11.9195   11.8809 C   0  0  0  0  0  0  0  0  0  0  0  0
   -6.4486  -12.9235   12.1551 C   0  0  0  0  0  0  0  0  0  0  0  0
   -6.8098  -14.2750   12.1207 C   0  0  0  0  0  0  0  0  0  0  0  0
   -4.6444  -12.5025   12.5849 Br  0  0  0  0  0  0  0  0  0  0  0  0
   -6.9476  -10.6242   11.9372 O   0  0  0  0  0  0  0  0  0  0  0  0
   -7.9020   -9.5910   11.7256 C   0  0  0  0  0  0  0  0  0  0  0  0
  1  2  1  0
  2  3  1  0
  3  4  2  0
  3  5  1  0
  5  6  2  0
  5 10  1  0
  6  7  1  0
  7  8  2  0
  8  9  1  0
  8 12  1  0
  9 10  2  0
  9 11  1  0
 12 13  1  0
M  END
>  <Gold.Gold.Protein.RotatedWaterAtoms>  (45) 


>  <Gold.Id.Protein>  (45) 


>  <Gold.PLP.Chemscore.CHOScore>  (45) 
0.0000

>  <Gold.PLP.Chemscore.Hbond>  (45) 
1.0000

>  <Gold.PLP.Chemscore.Internal.Correction>  (45) 
0.0000

>  <Gold.PLP.Chemscore.Metal>  (45) 
0.0000

>  <Gold.PLP.Fitness>  (45) 
43.9775

>  <Gold.PLP.PLP>  (45) 
-41.0517

>  <Gold.PLP.ligand.clash>  (45) 
0.0000

>  <Gold.PLP.ligand.torsion>  (45) 
0.0371

>  <Gold.PLP.part.buried>  (45) 
-3.7367

>  <Gold.PLP.part.hbond>  (45) 
-1.0000

>  <Gold.PLP.part.metal>  (45) 
0.0000

>  <Gold.PLP.part.nonpolar>  (45) 
-36.7483

>  <Gold.PLP.part.repulsive>  (45) 
0.4054

>  <Gold.Protein.RotatedAtoms>  (45) 


>  <Gold.Protein.RotatedTorsions>  (45) 


>  <Gold.Protein.RotatedWaterAtoms>  (45) 


>  <Gold.Version>  (45) 
5.3.0

>  <PLP.Chemscore.CHOScore>  (45) 


>  <PLP.Chemscore.Hbond>  (45) 


>  <PLP.Chemscore.Internal.Correction>  (45) 


>  <PLP.Chemscore.Metal>  (45) 


>  <PLP.Fitness>  (45) 


>  <PLP.PLP>  (45) 


>  <PLP.ligand.clash>  (45) 


>  <PLP.ligand.torsion>  (45) 


>  <PLP.part.buried>  (45) 


>  <PLP.part.hbond>  (45) 


>  <PLP.part.metal>  (45) 


>  <PLP.part.nonpolar>  (45) 


>  <PLP.part.repulsive>  (45) 


>  <RMSD>  (45) 
0.319376411377

>  <Torsion>  (45) 
169.460450784

>  <TorsionO>  (45) 
9.7963905484

>  <TorsionR>  (45) 
179.256841332

>  <Version>  (45) 


>  <product>  (45) 
92|Compound_34|Compounds_3D_F|sdf|15|dock3|1

>  <rmsd>  (45) 
-1

$$$$
128|137677_56|Aromatic_carboxylic_acids_F|sdf|33|dock1|1
     RDKit          3D

 11 11  0  0  0  0  0  0  0  0999 V2000
   -8.6116  -16.1544   11.8887 C   0  0  0  0  0  0  0  0  0  0  0  0
   -7.9978  -14.8484   11.9215 N   0  0  0  0  0  0  0  0  0  0  0  0
   -8.7778  -13.7008   11.8756 C   0  0  0  0  0  0  0  0  0  0  0  0
  -10.0002  -13.7896   11.8139 O   0  0  0  0  0  0  0  0  0  0  0  0
   -8.0808  -12.3609   11.9017 C   0  0  0  0  0  0  0  0  0  0  0  0
   -8.7916  -11.1851   11.5813 C   0  0  0  0  0  0  0  0  0  0  0  0
   -8.1781   -9.9267   11.5989 C   0  0  0  0  0  0  0  0  0  0  0  0
   -6.8391   -9.8089   11.9369 C   0  0  0  0  0  0  0  0  0  0  0  0
   -6.1124  -10.9502   12.2575 C   0  0  0  0  0  0  0  0  0  0  0  0
   -6.7171  -12.2196   12.2428 C   0  0  0  0  0  0  0  0  0  0  0  0
   -5.5419  -13.6455   12.7121 Br  0  0  0  0  0  0  0  0  0  0  0  0
  1  2  1  0
  2  3  1  0
  3  4  2  0
  3  5  1  0
  5  6  2  0
  5 10  1  0
  6  7  1  0
  7  8  2  0
  8  9  1  0
  9 10  2  0
 10 11  1  0
M  END
>  <Gold.Gold.Protein.RotatedWaterAtoms>  (46) 


>  <Gold.Id.Protein>  (46) 


>  <Gold.PLP.Chemscore.CHOScore>  (46) 
0.0000

>  <Gold.PLP.Chemscore.Hbond>  (46) 
1.0000

>  <Gold.PLP.Chemscore.Internal.Correction>  (46) 
0.0000

>  <Gold.PLP.Chemscore.Metal>  (46) 
0.0000

>  <Gold.PLP.Fitness>  (46) 
45.2899

>  <Gold.PLP.PLP>  (46) 
-42.4444

>  <Gold.PLP.ligand.clash>  (46) 
0.0000

>  <Gold.PLP.ligand.torsion>  (46) 
0.0772

>  <Gold.PLP.part.buried>  (46) 
-6.4690

>  <Gold.PLP.part.hbond>  (46) 
-0.6863

>  <Gold.PLP.part.metal>  (46) 
0.0000

>  <Gold.PLP.part.nonpolar>  (46) 
-34.8280

>  <Gold.PLP.part.repulsive>  (46) 
0.1963

>  <Gold.Protein.RotatedAtoms>  (46) 


>  <Gold.Protein.RotatedTorsions>  (46) 


>  <Gold.Protein.RotatedWaterAtoms>  (46) 


>  <Gold.Version>  (46) 
5.3.0

>  <PLP.Chemscore.CHOScore>  (46) 


>  <PLP.Chemscore.Hbond>  (46) 


>  <PLP.Chemscore.Internal.Correction>  (46) 


>  <PLP.Chemscore.Metal>  (46) 


>  <PLP.Fitness>  (46) 


>  <PLP.PLP>  (46) 


>  <PLP.ligand.clash>  (46) 


>  <PLP.ligand.torsion>  (46) 


>  <PLP.part.buried>  (46) 


>  <PLP.part.hbond>  (46) 


>  <PLP.part.metal>  (46) 


>  <PLP.part.nonpolar>  (46) 


>  <PLP.part.repulsive>  (46) 


>  <RMSD>  (46) 
0.428070490903

>  <Torsion>  (46) 
152.444048788

>  <TorsionO>  (46) 
39.0580871276

>  <TorsionR>  (46) 
168.497864085

>  <Version>  (46) 


>  <product>  (46) 
92|Compound_34|Compounds_3D_F|sdf|15|dock3|1

>  <rmsd>  (46) 
-1

$$$$
974|750794_1404|Aromatic_primary_amines_F|sdf|194|dock3|1
     RDKit          3D

 14 14  0  0  0  0  0  0  0  0999 V2000
  -13.6355  -18.1936    9.4145 C   0  0  0  0  0  0  0  0  0  0  0  0
  -13.2544  -19.4497   10.1732 C   0  0  0  0  0  0  0  0  0  0  0  0
  -11.8731  -19.3506   10.5383 O   0  0  0  0  0  0  0  0  0  0  0  0
  -11.6148  -18.5085   11.5823 C   0  0  0  0  0  0  0  0  0  0  0  0
  -12.3947  -18.2810   12.5004 O   0  0  0  0  0  0  0  0  0  0  0  0
  -10.3031  -17.8985   11.4902 C   0  0  0  0  0  0  0  0  0  0  0  0
   -9.1673  -18.4974   10.9931 C   0  0  0  0  0  0  0  0  0  0  0  0
   -8.1448  -17.6055   11.0758 O   0  0  0  0  0  0  0  0  0  0  0  0
   -8.7110  -16.4917   11.6237 C   0  0  0  0  0  0  0  0  0  0  0  0
   -9.9933  -16.6110   11.8915 N   0  0  0  0  0  0  0  0  0  0  0  0
   -7.9611  -15.3718   11.8549 N   0  0  0  0  0  0  0  0  0  0  0  0
   -8.5046  -14.1249   12.0676 C   0  0  0  0  0  0  0  0  0  0  0  0
   -9.6950  -13.8313   12.1035 O   0  0  0  0  0  0  0  0  0  0  0  0
   -7.4448  -13.0785   12.3021 C   0  0  0  0  0  0  0  0  0  0  0  0
  1  2  1  0
  2  3  1  0
  3  4  1  0
  4  5  2  0
  4  6  1  0
  6  7  2  0
  6 10  1  0
  7  8  1  0
  8  9  1  0
  9 10  2  0
  9 11  1  0
 11 12  1  0
 12 13  2  0
 12 14  1  0
M  END
>  <Gold.Gold.Protein.RotatedWaterAtoms>  (47) 


>  <Gold.Id.Protein>  (47) 


>  <Gold.PLP.Chemscore.CHOScore>  (47) 
0.0000

>  <Gold.PLP.Chemscore.Hbond>  (47) 
2.0000

>  <Gold.PLP.Chemscore.Internal.Correction>  (47) 
0.0053

>  <Gold.PLP.Chemscore.Metal>  (47) 
0.0000

>  <Gold.PLP.Fitness>  (47) 
36.8047

>  <Gold.PLP.PLP>  (47) 
-32.7996

>  <Gold.PLP.ligand.clash>  (47) 
0.0000

>  <Gold.PLP.ligand.torsion>  (47) 
1.0001

>  <Gold.PLP.part.buried>  (47) 
-6.5206

>  <Gold.PLP.part.hbond>  (47) 
-2.9156

>  <Gold.PLP.part.metal>  (47) 
0.0000

>  <Gold.PLP.part.nonpolar>  (47) 
-23.4080

>  <Gold.PLP.part.repulsive>  (47) 
0.3100

>  <Gold.Protein.RotatedAtoms>  (47) 


>  <Gold.Protein.RotatedTorsions>  (47) 


>  <Gold.Protein.RotatedWaterAtoms>  (47) 


>  <Gold.Version>  (47) 
5.3.0

>  <PLP.Chemscore.CHOScore>  (47) 


>  <PLP.Chemscore.Hbond>  (47) 


>  <PLP.Chemscore.Internal.Correction>  (47) 


>  <PLP.Chemscore.Metal>  (47) 


>  <PLP.Fitness>  (47) 


>  <PLP.PLP>  (47) 


>  <PLP.ligand.clash>  (47) 


>  <PLP.ligand.torsion>  (47) 


>  <PLP.part.buried>  (47) 


>  <PLP.part.hbond>  (47) 


>  <PLP.part.metal>  (47) 


>  <PLP.part.nonpolar>  (47) 


>  <PLP.part.repulsive>  (47) 


>  <RMSD>  (47) 
0.499949349045

>  <Torsion>  (47) 
159.973716791

>  <TorsionO>  (47) 
19.1052109979

>  <TorsionR>  (47) 
179.078927789

>  <Version>  (47) 


>  <product>  (47) 
92|Compound_34|Compounds_3D_F|sdf|15|dock3|1

>  <rmsd>  (47) 
-1

$$$$
1884|M3006_1781|Aromatic_primary_amines_F|sdf|361|dock3|1
     RDKit          3D

 31 34  0  0  0  0  0  0  0  0999 V2000
  -14.4210  -19.8971    8.7934 C   0  0  0  0  0  0  0  0  0  0  0  0
  -13.9762  -19.4927   10.1894 C   0  0  0  0  0  0  0  0  0  0  0  0
  -14.1356  -20.6409   11.1817 C   0  0  0  0  0  0  0  0  0  0  0  0
  -13.5197  -20.3070   12.5189 C   0  0  0  0  0  0  0  0  0  0  0  0
  -12.9307  -19.2724   12.7954 O   0  0  0  0  0  0  0  0  0  0  0  0
  -13.7110  -21.3451   13.3845 O   0  0  0  0  0  0  0  0  0  0  0  0
  -12.9425  -21.2698   14.5900 C   0  0  0  0  0  0  0  0  0  0  0  0
  -12.8849  -22.6189   15.2889 C   0  0  0  0  0  0  0  0  0  0  0  0
  -11.6552  -22.4172   16.1494 C   0  0  0  0  0  0  0  0  0  0  0  0
  -11.2420  -23.7410   16.7624 C   0  0  0  0  0  0  0  0  0  0  0  0
  -12.3024  -24.2223   17.5862 O   0  0  0  0  0  0  0  0  0  0  0  0
  -13.7888  -24.3384   16.9603 P   0  0  0  0  0  0  0  0  0  0  0  0
  -14.8775  -24.6795   17.9243 O   0  0  0  0  0  0  0  0  0  0  0  0
  -13.9839  -22.9641   16.1174 O   0  0  0  0  0  0  0  0  0  0  0  0
  -13.5991  -25.4435   15.8075 O   0  0  0  0  0  0  0  0  0  0  0  0
  -10.6922  -21.8161   15.2889 O   0  0  0  0  0  0  0  0  0  0  0  0
  -11.4338  -20.9664   14.3653 C   0  0  0  0  0  0  0  0  0  0  0  0
  -10.9052  -21.2017   13.0342 N   0  0  0  0  0  0  0  0  0  0  0  0
  -10.7814  -22.4114   12.4013 C   0  0  0  0  0  0  0  0  0  0  0  0
  -10.2640  -22.2918   11.1953 N   0  0  0  0  0  0  0  0  0  0  0  0
  -10.0274  -20.9476   11.0424 C   0  0  0  0  0  0  0  0  0  0  0  0
  -10.4203  -20.2487   12.1733 C   0  0  0  0  0  0  0  0  0  0  0  0
  -10.3338  -18.9216   12.3641 N   0  0  0  0  0  0  0  0  0  0  0  0
   -9.8057  -18.2730   11.3024 C   0  0  0  0  0  0  0  0  0  0  0  0
   -9.3808  -18.8370   10.1545 N   0  0  0  0  0  0  0  0  0  0  0  0
   -9.4895  -20.1691   10.0244 C   0  0  0  0  0  0  0  0  0  0  0  0
   -9.0330  -20.6622    8.8349 O   0  0  0  0  0  0  0  0  0  0  0  0
   -9.7222  -16.8901   11.4793 N   0  0  0  0  0  0  0  0  0  0  0  0
   -8.5796  -16.1798   11.7761 C   0  0  0  0  0  0  0  0  0  0  0  0
   -7.4445  -16.6221   11.9131 O   0  0  0  0  0  0  0  0  0  0  0  0
   -8.8524  -14.7024   11.8973 C   0  0  0  0  0  0  0  0  0  0  0  0
  1  2  1  0
  2  3  1  0
  3  4  1  0
  4  5  2  0
  4  6  1  0
  6  7  1  0
  7  8  1  0
  7 17  1  0
  8  9  1  0
  8 14  1  0
  9 10  1  0
  9 16  1  0
 10 11  1  0
 11 12  1  0
 12 13  2  0
 12 14  1  0
 12 15  1  0
 16 17  1  0
 17 18  1  0
 18 19  1  0
 18 22  1  0
 19 20  2  0
 20 21  1  0
 21 22  2  0
 21 26  1  0
 22 23  1  0
 23 24  2  0
 24 25  1  0
 24 28  1  0
 25 26  2  0
 26 27  1  0
 28 29  1  0
 29 30  2  0
 29 31  1  0
M  END
>  <Gold.Gold.Protein.RotatedWaterAtoms>  (48) 


>  <Gold.Id.Protein>  (48) 


>  <Gold.PLP.Chemscore.CHOScore>  (48) 
0.0000

>  <Gold.PLP.Chemscore.Hbond>  (48) 
1.2080

>  <Gold.PLP.Chemscore.Internal.Correction>  (48) 
0.1232

>  <Gold.PLP.Chemscore.Metal>  (48) 
0.0000

>  <Gold.PLP.Fitness>  (48) 
47.7145

>  <Gold.PLP.PLP>  (48) 
-46.0218

>  <Gold.PLP.ligand.clash>  (48) 
0.0000

>  <Gold.PLP.ligand.torsion>  (48) 
1.0272

>  <Gold.PLP.part.buried>  (48) 
-2.2958

>  <Gold.PLP.part.hbond>  (48) 
-4.0214

>  <Gold.PLP.part.metal>  (48) 
0.0000

>  <Gold.PLP.part.nonpolar>  (48) 
-41.4699

>  <Gold.PLP.part.repulsive>  (48) 
0.9524

>  <Gold.Protein.RotatedAtoms>  (48) 


>  <Gold.Protein.RotatedTorsions>  (48) 


>  <Gold.Protein.RotatedWaterAtoms>  (48) 


>  <Gold.Version>  (48) 
5.3.0

>  <PLP.Chemscore.CHOScore>  (48) 


>  <PLP.Chemscore.Hbond>  (48) 


>  <PLP.Chemscore.Internal.Correction>  (48) 


>  <PLP.Chemscore.Metal>  (48) 


>  <PLP.Fitness>  (48) 


>  <PLP.PLP>  (48) 


>  <PLP.ligand.clash>  (48) 


>  <PLP.ligand.torsion>  (48) 


>  <PLP.part.buried>  (48) 


>  <PLP.part.hbond>  (48) 


>  <PLP.part.metal>  (48) 


>  <PLP.part.nonpolar>  (48) 


>  <PLP.part.repulsive>  (48) 


>  <RMSD>  (48) 
0.291955871297

>  <Torsion>  (48) 
171.923704933

>  <TorsionO>  (48) 
6.03609353985

>  <TorsionR>  (48) 
177.959798473

>  <Version>  (48) 


>  <product>  (48) 
92|Compound_34|Compounds_3D_F|sdf|15|dock3|1

>  <rmsd>  (48) 
-1

$$$$
193|32168_281|Aromatic_primary_amines_F|sdf|39|dock6|1
     RDKit          3D

 23 25  0  0  0  0  0  0  0  0999 V2000
   -7.8439  -12.1461   11.8919 C   0  0  0  0  0  0  0  0  0  0  0  0
   -8.5691  -13.4472   11.6781 C   0  0  0  0  0  0  0  0  0  0  0  0
   -9.7886  -13.4981   11.5208 O   0  0  0  0  0  0  0  0  0  0  0  0
   -7.7264  -14.5390   11.7020 N   0  0  0  0  0  0  0  0  0  0  0  0
   -8.1889  -15.8197   11.5323 C   0  0  0  0  0  0  0  0  0  0  0  0
   -9.4747  -16.2039   11.8163 N   0  0  0  0  0  0  0  0  0  0  0  0
   -9.5964  -17.5375   11.5379 C   0  0  0  0  0  0  0  0  0  0  0  0
  -10.6643  -18.4283   11.6415 C   0  0  0  0  0  0  0  0  0  0  0  0
  -10.4051  -19.7586   11.2778 C   0  0  0  0  0  0  0  0  0  0  0  0
   -9.1530  -20.1507   10.7795 C   0  0  0  0  0  0  0  0  0  0  0  0
   -8.1017  -19.2294   10.6839 C   0  0  0  0  0  0  0  0  0  0  0  0
   -8.3349  -17.9032   11.0783 C   0  0  0  0  0  0  0  0  0  0  0  0
   -7.4773  -16.8281   11.0838 N   0  0  0  0  0  0  0  0  0  0  0  0
   -8.8530  -21.7658   10.2429 Cl  0  0  0  0  0  0  0  0  0  0  0  0
  -11.4669  -20.6323   11.3734 O   0  0  0  0  0  0  0  0  0  0  0  0
  -12.5262  -20.4408   10.5053 C   0  0  0  0  0  0  0  0  0  0  0  0
  -13.3188  -19.2846   10.5304 C   0  0  0  0  0  0  0  0  0  0  0  0
  -14.3665  -19.1344    9.6224 C   0  0  0  0  0  0  0  0  0  0  0  0
  -14.6219  -20.1279    8.6796 C   0  0  0  0  0  0  0  0  0  0  0  0
  -13.8238  -21.2756    8.6345 C   0  0  0  0  0  0  0  0  0  0  0  0
  -12.7674  -21.4342    9.5416 C   0  0  0  0  0  0  0  0  0  0  0  0
  -11.7588  -22.8458    9.4996 Cl  0  0  0  0  0  0  0  0  0  0  0  0
  -14.1988  -22.4584    7.4296 Cl  0  0  0  0  0  0  0  0  0  0  0  0
  1  2  1  0
  2  3  2  0
  2  4  1  0
  4  5  1  0
  5  6  1  0
  5 13  2  0
  6  7  1  0
  7  8  2  0
  7 12  1  0
  8  9  1  0
  9 10  2  0
  9 15  1  0
 10 11  1  0
 10 14  1  0
 11 12  2  0
 12 13  1  0
 15 16  1  0
 16 17  2  0
 16 21  1  0
 17 18  1  0
 18 19  2  0
 19 20  1  0
 20 21  2  0
 20 23  1  0
 21 22  1  0
M  END
>  <Gold.Gold.Protein.RotatedWaterAtoms>  (49) 


>  <Gold.Id.Protein>  (49) 


>  <Gold.PLP.Chemscore.CHOScore>  (49) 
0.0000

>  <Gold.PLP.Chemscore.Hbond>  (49) 
1.0000

>  <Gold.PLP.Chemscore.Internal.Correction>  (49) 
0.0086

>  <Gold.PLP.Chemscore.Metal>  (49) 
0.0000

>  <Gold.PLP.Fitness>  (49) 
50.7139

>  <Gold.PLP.PLP>  (49) 
-48.1706

>  <Gold.PLP.ligand.clash>  (49) 
0.0000

>  <Gold.PLP.ligand.torsion>  (49) 
0.2327

>  <Gold.PLP.part.buried>  (49) 
-6.5205

>  <Gold.PLP.part.hbond>  (49) 
-2.0000

>  <Gold.PLP.part.metal>  (49) 
0.0000

>  <Gold.PLP.part.nonpolar>  (49) 
-39.3857

>  <Gold.PLP.part.repulsive>  (49) 
0.3298

>  <Gold.Protein.RotatedAtoms>  (49) 


>  <Gold.Protein.RotatedTorsions>  (49) 


>  <Gold.Protein.RotatedWaterAtoms>  (49) 


>  <Gold.Version>  (49) 
5.3.0

>  <PLP.Chemscore.CHOScore>  (49) 


>  <PLP.Chemscore.Hbond>  (49) 


>  <PLP.Chemscore.Internal.Correction>  (49) 


>  <PLP.Chemscore.Metal>  (49) 


>  <PLP.Fitness>  (49) 


>  <PLP.PLP>  (49) 


>  <PLP.ligand.clash>  (49) 


>  <PLP.ligand.torsion>  (49) 


>  <PLP.part.buried>  (49) 


>  <PLP.part.hbond>  (49) 


>  <PLP.part.metal>  (49) 


>  <PLP.part.nonpolar>  (49) 


>  <PLP.part.repulsive>  (49) 


>  <RMSD>  (49) 
0.439733510035

>  <Torsion>  (49) 
177.672185574

>  <TorsionO>  (49) 
4.31728583372

>  <TorsionR>  (49) 
173.35489974

>  <Version>  (49) 


>  <product>  (49) 
92|Compound_34|Compounds_3D_F|sdf|15|dock3|1

>  <rmsd>  (49) 
-1

$$$$
25|Compound_12|Compounds_3D_F|sdf|5|dock6|1
     RDKit          3D

  6  5  0  0  0  0  0  0  0  0999 V2000
   -4.0456  -16.8938   11.5277 B   0  0  0  0  0  0  0  0  0  0  0  0
   -5.0471  -15.9035   12.2206 C   0  0  0  0  0  0  0  0  0  0  0  0
   -5.9554  -16.3343   12.8985 O   0  0  0  0  0  0  0  0  0  0  0  0
   -4.8973  -14.5732   12.0616 N   0  0  0  0  0  0  0  0  0  0  0  0
   -5.8324  -13.6487   12.7082 C   0  0  0  0  0  0  0  0  0  0  0  0
   -5.3538  -12.2105   12.4994 C   0  0  0  0  0  0  0  0  0  0  0  0
  1  2  1  0
  2  3  2  0
  2  4  1  0
  4  5  1  0
  5  6  1  0
M  END
>  <Gold.Gold.Protein.RotatedWaterAtoms>  (50) 


>  <Gold.Id.Protein>  (50) 


>  <Gold.PLP.Chemscore.CHOScore>  (50) 
0.0000

>  <Gold.PLP.Chemscore.Hbond>  (50) 
1.0000

>  <Gold.PLP.Chemscore.Internal.Correction>  (50) 
0.0000

>  <Gold.PLP.Chemscore.Metal>  (50) 
0.0000

>  <Gold.PLP.Fitness>  (50) 
24.3623

>  <Gold.PLP.PLP>  (50) 
-21.4019

>  <Gold.PLP.ligand.clash>  (50) 
0.0000

>  <Gold.PLP.ligand.torsion>  (50) 
0.0198

>  <Gold.PLP.part.buried>  (50) 
-4.3944

>  <Gold.PLP.part.hbond>  (50) 
-1.9310

>  <Gold.PLP.part.metal>  (50) 
0.0000

>  <Gold.PLP.part.nonpolar>  (50) 
-15.0372

>  <Gold.PLP.part.repulsive>  (50) 
0.1684

>  <Gold.Protein.RotatedAtoms>  (50) 


>  <Gold.Protein.RotatedTorsions>  (50) 


>  <Gold.Protein.RotatedWaterAtoms>  (50) 


>  <Gold.Version>  (50) 
5.3.0

>  <PLP.Chemscore.CHOScore>  (50) 


>  <PLP.Chemscore.Hbond>  (50) 


>  <PLP.Chemscore.Internal.Correction>  (50) 


>  <PLP.Chemscore.Metal>  (50) 


>  <PLP.Fitness>  (50) 


>  <PLP.PLP>  (50) 


>  <PLP.ligand.clash>  (50) 


>  <PLP.ligand.torsion>  (50) 


>  <PLP.part.buried>  (50) 


>  <PLP.part.hbond>  (50) 


>  <PLP.part.metal>  (50) 


>  <PLP.part.nonpolar>  (50) 


>  <PLP.part.repulsive>  (50) 


>  <Version>  (50) 


$$$$
94|664022_40|Aromatic_carboxylic_acids_F|sdf|24|dock1|1
     RDKit          3D

 12 12  0  0  0  0  0  0  0  0999 V2000
   -8.2596  -17.1212   11.4595 C   0  0  0  0  0  0  0  0  0  0  0  0
   -7.6366  -15.8367   11.6688 N   0  0  0  0  0  0  0  0  0  0  0  0
   -8.3409  -14.6553   11.5719 C   0  0  0  0  0  0  0  0  0  0  0  0
   -9.5296  -14.5547   11.2978 O   0  0  0  0  0  0  0  0  0  0  0  0
   -7.5420  -13.4431   11.8503 C   0  0  0  0  0  0  0  0  0  0  0  0
   -8.1627  -12.1983   11.6738 C   0  0  0  0  0  0  0  0  0  0  0  0
   -7.4390  -11.0301   11.9055 C   0  0  0  0  0  0  0  0  0  0  0  0
   -6.1069  -11.0910   12.3103 C   0  0  0  0  0  0  0  0  0  0  0  0
   -5.4897  -12.3324   12.4853 C   0  0  0  0  0  0  0  0  0  0  0  0
   -6.2035  -13.5136   12.2549 C   0  0  0  0  0  0  0  0  0  0  0  0
   -5.3062  -15.1564   12.5638 Br  0  0  0  0  0  0  0  0  0  0  0  0
   -8.1960   -9.5005   11.6887 Cl  0  0  0  0  0  0  0  0  0  0  0  0
  1  2  1  0
  2  3  1  0
  3  4  2  0
  3  5  1  0
  5  6  2  0
  5 10  1  0
  6  7  1  0
  7  8  2  0
  7 12  1  0
  8  9  1  0
  9 10  2  0
 10 11  1  0
M  END
>  <Gold.Gold.Protein.RotatedWaterAtoms>  (51) 


>  <Gold.Id.Protein>  (51) 


>  <Gold.PLP.Chemscore.CHOScore>  (51) 
0.0000

>  <Gold.PLP.Chemscore.Hbond>  (51) 
0.4160

>  <Gold.PLP.Chemscore.Internal.Correction>  (51) 
0.0004

>  <Gold.PLP.Chemscore.Metal>  (51) 
0.0000

>  <Gold.PLP.Fitness>  (51) 
48.9046

>  <Gold.PLP.PLP>  (51) 
-47.6744

>  <Gold.PLP.ligand.clash>  (51) 
0.0000

>  <Gold.PLP.ligand.torsion>  (51) 
0.0091

>  <Gold.PLP.part.buried>  (51) 
-7.3578

>  <Gold.PLP.part.hbond>  (51) 
-0.5127

>  <Gold.PLP.part.metal>  (51) 
0.0000

>  <Gold.PLP.part.nonpolar>  (51) 
-40.3098

>  <Gold.PLP.part.repulsive>  (51) 
0.1684

>  <Gold.Protein.RotatedAtoms>  (51) 


>  <Gold.Protein.RotatedTorsions>  (51) 


>  <Gold.Protein.RotatedWaterAtoms>  (51) 


>  <Gold.Version>  (51) 
5.3.0

>  <PLP.Chemscore.CHOScore>  (51) 


>  <PLP.Chemscore.Hbond>  (51) 


>  <PLP.Chemscore.Internal.Correction>  (51) 


>  <PLP.Chemscore.Metal>  (51) 


>  <PLP.Fitness>  (51) 


>  <PLP.PLP>  (51) 


>  <PLP.ligand.clash>  (51) 


>  <PLP.ligand.torsion>  (51) 


>  <PLP.part.buried>  (51) 


>  <PLP.part.hbond>  (51) 


>  <PLP.part.metal>  (51) 


>  <PLP.part.nonpolar>  (51) 


>  <PLP.part.repulsive>  (51) 


>  <RMSD>  (51) 
0.30972197429

>  <Torsion>  (51) 
172.929186758

>  <TorsionO>  (51) 
24.4968065243

>  <TorsionR>  (51) 
162.574006718

>  <Version>  (51) 


>  <product>  (51) 
25|Compound_12|Compounds_3D_F|sdf|5|dock6|1

>  <rmsd>  (51) 
-1

$$$$
110|565385_49|Aromatic_carboxylic_acids_F|sdf|29|dock1|1
     RDKit          3D

 13 13  0  0  0  0  0  0  0  0999 V2000
  -10.1118  -17.9021   11.6320 C   0  0  0  0  0  0  0  0  0  0  0  0
   -9.7537  -16.5043   11.6546 N   0  0  0  0  0  0  0  0  0  0  0  0
   -8.4330  -16.1187   11.7930 C   0  0  0  0  0  0  0  0  0  0  0  0
   -7.5159  -16.9298   11.9008 O   0  0  0  0  0  0  0  0  0  0  0  0
   -8.1234  -14.6552   11.8105 C   0  0  0  0  0  0  0  0  0  0  0  0
   -9.0636  -13.6551   11.5375 C   0  0  0  0  0  0  0  0  0  0  0  0
   -8.6966  -12.3009   11.5726 C   0  0  0  0  0  0  0  0  0  0  0  0
   -7.3879  -11.9195   11.8809 C   0  0  0  0  0  0  0  0  0  0  0  0
   -6.4486  -12.9235   12.1551 C   0  0  0  0  0  0  0  0  0  0  0  0
   -6.8098  -14.2750   12.1207 C   0  0  0  0  0  0  0  0  0  0  0  0
   -4.6444  -12.5025   12.5849 Br  0  0  0  0  0  0  0  0  0  0  0  0
   -6.9476  -10.6242   11.9372 O   0  0  0  0  0  0  0  0  0  0  0  0
   -7.9020   -9.5910   11.7256 C   0  0  0  0  0  0  0  0  0  0  0  0
  1  2  1  0
  2  3  1  0
  3  4  2  0
  3  5  1  0
  5  6  2  0
  5 10  1  0
  6  7  1  0
  7  8  2  0
  8  9  1  0
  8 12  1  0
  9 10  2  0
  9 11  1  0
 12 13  1  0
M  END
>  <Gold.Gold.Protein.RotatedWaterAtoms>  (52) 


>  <Gold.Id.Protein>  (52) 


>  <Gold.PLP.Chemscore.CHOScore>  (52) 
0.0000

>  <Gold.PLP.Chemscore.Hbond>  (52) 
1.0000

>  <Gold.PLP.Chemscore.Internal.Correction>  (52) 
0.0000

>  <Gold.PLP.Chemscore.Metal>  (52) 
0.0000

>  <Gold.PLP.Fitness>  (52) 
43.9775

>  <Gold.PLP.PLP>  (52) 
-41.0517

>  <Gold.PLP.ligand.clash>  (52) 
0.0000

>  <Gold.PLP.ligand.torsion>  (52) 
0.0371

>  <Gold.PLP.part.buried>  (52) 
-3.7367

>  <Gold.PLP.part.hbond>  (52) 
-1.0000

>  <Gold.PLP.part.metal>  (52) 
0.0000

>  <Gold.PLP.part.nonpolar>  (52) 
-36.7483

>  <Gold.PLP.part.repulsive>  (52) 
0.4054

>  <Gold.Protein.RotatedAtoms>  (52) 


>  <Gold.Protein.RotatedTorsions>  (52) 


>  <Gold.Protein.RotatedWaterAtoms>  (52) 


>  <Gold.Version>  (52) 
5.3.0

>  <PLP.Chemscore.CHOScore>  (52) 


>  <PLP.Chemscore.Hbond>  (52) 


>  <PLP.Chemscore.Internal.Correction>  (52) 


>  <PLP.Chemscore.Metal>  (52) 


>  <PLP.Fitness>  (52) 


>  <PLP.PLP>  (52) 


>  <PLP.ligand.clash>  (52) 


>  <PLP.ligand.torsion>  (52) 


>  <PLP.part.buried>  (52) 


>  <PLP.part.hbond>  (52) 


>  <PLP.part.metal>  (52) 


>  <PLP.part.nonpolar>  (52) 


>  <PLP.part.repulsive>  (52) 


>  <RMSD>  (52) 
0.319376411377

>  <Torsion>  (52) 
169.460450784

>  <TorsionO>  (52) 
9.7963905484

>  <TorsionR>  (52) 
179.256841332

>  <Version>  (52) 


>  <product>  (52) 
25|Compound_12|Compounds_3D_F|sdf|5|dock6|1

>  <rmsd>  (52) 
-1

$$$$
128|137677_56|Aromatic_carboxylic_acids_F|sdf|33|dock1|1
     RDKit          3D

 11 11  0  0  0  0  0  0  0  0999 V2000
   -8.6116  -16.1544   11.8887 C   0  0  0  0  0  0  0  0  0  0  0  0
   -7.9978  -14.8484   11.9215 N   0  0  0  0  0  0  0  0  0  0  0  0
   -8.7778  -13.7008   11.8756 C   0  0  0  0  0  0  0  0  0  0  0  0
  -10.0002  -13.7896   11.8139 O   0  0  0  0  0  0  0  0  0  0  0  0
   -8.0808  -12.3609   11.9017 C   0  0  0  0  0  0  0  0  0  0  0  0
   -8.7916  -11.1851   11.5813 C   0  0  0  0  0  0  0  0  0  0  0  0
   -8.1781   -9.9267   11.5989 C   0  0  0  0  0  0  0  0  0  0  0  0
   -6.8391   -9.8089   11.9369 C   0  0  0  0  0  0  0  0  0  0  0  0
   -6.1124  -10.9502   12.2575 C   0  0  0  0  0  0  0  0  0  0  0  0
   -6.7171  -12.2196   12.2428 C   0  0  0  0  0  0  0  0  0  0  0  0
   -5.5419  -13.6455   12.7121 Br  0  0  0  0  0  0  0  0  0  0  0  0
  1  2  1  0
  2  3  1  0
  3  4  2  0
  3  5  1  0
  5  6  2  0
  5 10  1  0
  6  7  1  0
  7  8  2  0
  8  9  1  0
  9 10  2  0
 10 11  1  0
M  END
>  <Gold.Gold.Protein.RotatedWaterAtoms>  (53) 


>  <Gold.Id.Protein>  (53) 


>  <Gold.PLP.Chemscore.CHOScore>  (53) 
0.0000

>  <Gold.PLP.Chemscore.Hbond>  (53) 
1.0000

>  <Gold.PLP.Chemscore.Internal.Correction>  (53) 
0.0000

>  <Gold.PLP.Chemscore.Metal>  (53) 
0.0000

>  <Gold.PLP.Fitness>  (53) 
45.2899

>  <Gold.PLP.PLP>  (53) 
-42.4444

>  <Gold.PLP.ligand.clash>  (53) 
0.0000

>  <Gold.PLP.ligand.torsion>  (53) 
0.0772

>  <Gold.PLP.part.buried>  (53) 
-6.4690

>  <Gold.PLP.part.hbond>  (53) 
-0.6863

>  <Gold.PLP.part.metal>  (53) 
0.0000

>  <Gold.PLP.part.nonpolar>  (53) 
-34.8280

>  <Gold.PLP.part.repulsive>  (53) 
0.1963

>  <Gold.Protein.RotatedAtoms>  (53) 


>  <Gold.Protein.RotatedTorsions>  (53) 


>  <Gold.Protein.RotatedWaterAtoms>  (53) 


>  <Gold.Version>  (53) 
5.3.0

>  <PLP.Chemscore.CHOScore>  (53) 


>  <PLP.Chemscore.Hbond>  (53) 


>  <PLP.Chemscore.Internal.Correction>  (53) 


>  <PLP.Chemscore.Metal>  (53) 


>  <PLP.Fitness>  (53) 


>  <PLP.PLP>  (53) 


>  <PLP.ligand.clash>  (53) 


>  <PLP.ligand.torsion>  (53) 


>  <PLP.part.buried>  (53) 


>  <PLP.part.hbond>  (53) 


>  <PLP.part.metal>  (53) 


>  <PLP.part.nonpolar>  (53) 


>  <PLP.part.repulsive>  (53) 


>  <RMSD>  (53) 
0.428070490903

>  <Torsion>  (53) 
152.444048788

>  <TorsionO>  (53) 
39.0580871276

>  <TorsionR>  (53) 
168.497864085

>  <Version>  (53) 


>  <product>  (53) 
25|Compound_12|Compounds_3D_F|sdf|5|dock6|1

>  <rmsd>  (53) 
-1

$$$$
974|750794_1404|Aromatic_primary_amines_F|sdf|194|dock3|1
     RDKit          3D

 14 14  0  0  0  0  0  0  0  0999 V2000
  -13.6355  -18.1936    9.4145 C   0  0  0  0  0  0  0  0  0  0  0  0
  -13.2544  -19.4497   10.1732 C   0  0  0  0  0  0  0  0  0  0  0  0
  -11.8731  -19.3506   10.5383 O   0  0  0  0  0  0  0  0  0  0  0  0
  -11.6148  -18.5085   11.5823 C   0  0  0  0  0  0  0  0  0  0  0  0
  -12.3947  -18.2810   12.5004 O   0  0  0  0  0  0  0  0  0  0  0  0
  -10.3031  -17.8985   11.4902 C   0  0  0  0  0  0  0  0  0  0  0  0
   -9.1673  -18.4974   10.9931 C   0  0  0  0  0  0  0  0  0  0  0  0
   -8.1448  -17.6055   11.0758 O   0  0  0  0  0  0  0  0  0  0  0  0
   -8.7110  -16.4917   11.6237 C   0  0  0  0  0  0  0  0  0  0  0  0
   -9.9933  -16.6110   11.8915 N   0  0  0  0  0  0  0  0  0  0  0  0
   -7.9611  -15.3718   11.8549 N   0  0  0  0  0  0  0  0  0  0  0  0
   -8.5046  -14.1249   12.0676 C   0  0  0  0  0  0  0  0  0  0  0  0
   -9.6950  -13.8313   12.1035 O   0  0  0  0  0  0  0  0  0  0  0  0
   -7.4448  -13.0785   12.3021 C   0  0  0  0  0  0  0  0  0  0  0  0
  1  2  1  0
  2  3  1  0
  3  4  1  0
  4  5  2  0
  4  6  1  0
  6  7  2  0
  6 10  1  0
  7  8  1  0
  8  9  1  0
  9 10  2  0
  9 11  1  0
 11 12  1  0
 12 13  2  0
 12 14  1  0
M  END
>  <Gold.Gold.Protein.RotatedWaterAtoms>  (54) 


>  <Gold.Id.Protein>  (54) 


>  <Gold.PLP.Chemscore.CHOScore>  (54) 
0.0000

>  <Gold.PLP.Chemscore.Hbond>  (54) 
2.0000

>  <Gold.PLP.Chemscore.Internal.Correction>  (54) 
0.0053

>  <Gold.PLP.Chemscore.Metal>  (54) 
0.0000

>  <Gold.PLP.Fitness>  (54) 
36.8047

>  <Gold.PLP.PLP>  (54) 
-32.7996

>  <Gold.PLP.ligand.clash>  (54) 
0.0000

>  <Gold.PLP.ligand.torsion>  (54) 
1.0001

>  <Gold.PLP.part.buried>  (54) 
-6.5206

>  <Gold.PLP.part.hbond>  (54) 
-2.9156

>  <Gold.PLP.part.metal>  (54) 
0.0000

>  <Gold.PLP.part.nonpolar>  (54) 
-23.4080

>  <Gold.PLP.part.repulsive>  (54) 
0.3100

>  <Gold.Protein.RotatedAtoms>  (54) 


>  <Gold.Protein.RotatedTorsions>  (54) 


>  <Gold.Protein.RotatedWaterAtoms>  (54) 


>  <Gold.Version>  (54) 
5.3.0

>  <PLP.Chemscore.CHOScore>  (54) 


>  <PLP.Chemscore.Hbond>  (54) 


>  <PLP.Chemscore.Internal.Correction>  (54) 


>  <PLP.Chemscore.Metal>  (54) 


>  <PLP.Fitness>  (54) 


>  <PLP.PLP>  (54) 


>  <PLP.ligand.clash>  (54) 


>  <PLP.ligand.torsion>  (54) 


>  <PLP.part.buried>  (54) 


>  <PLP.part.hbond>  (54) 


>  <PLP.part.metal>  (54) 


>  <PLP.part.nonpolar>  (54) 


>  <PLP.part.repulsive>  (54) 


>  <RMSD>  (54) 
0.499949349045

>  <Torsion>  (54) 
159.973716791

>  <TorsionO>  (54) 
19.1052109979

>  <TorsionR>  (54) 
179.078927789

>  <Version>  (54) 


>  <product>  (54) 
25|Compound_12|Compounds_3D_F|sdf|5|dock6|1

>  <rmsd>  (54) 
-1

$$$$
1884|M3006_1781|Aromatic_primary_amines_F|sdf|361|dock3|1
     RDKit          3D

 31 34  0  0  0  0  0  0  0  0999 V2000
  -14.4210  -19.8971    8.7934 C   0  0  0  0  0  0  0  0  0  0  0  0
  -13.9762  -19.4927   10.1894 C   0  0  0  0  0  0  0  0  0  0  0  0
  -14.1356  -20.6409   11.1817 C   0  0  0  0  0  0  0  0  0  0  0  0
  -13.5197  -20.3070   12.5189 C   0  0  0  0  0  0  0  0  0  0  0  0
  -12.9307  -19.2724   12.7954 O   0  0  0  0  0  0  0  0  0  0  0  0
  -13.7110  -21.3451   13.3845 O   0  0  0  0  0  0  0  0  0  0  0  0
  -12.9425  -21.2698   14.5900 C   0  0  0  0  0  0  0  0  0  0  0  0
  -12.8849  -22.6189   15.2889 C   0  0  0  0  0  0  0  0  0  0  0  0
  -11.6552  -22.4172   16.1494 C   0  0  0  0  0  0  0  0  0  0  0  0
  -11.2420  -23.7410   16.7624 C   0  0  0  0  0  0  0  0  0  0  0  0
  -12.3024  -24.2223   17.5862 O   0  0  0  0  0  0  0  0  0  0  0  0
  -13.7888  -24.3384   16.9603 P   0  0  0  0  0  0  0  0  0  0  0  0
  -14.8775  -24.6795   17.9243 O   0  0  0  0  0  0  0  0  0  0  0  0
  -13.9839  -22.9641   16.1174 O   0  0  0  0  0  0  0  0  0  0  0  0
  -13.5991  -25.4435   15.8075 O   0  0  0  0  0  0  0  0  0  0  0  0
  -10.6922  -21.8161   15.2889 O   0  0  0  0  0  0  0  0  0  0  0  0
  -11.4338  -20.9664   14.3653 C   0  0  0  0  0  0  0  0  0  0  0  0
  -10.9052  -21.2017   13.0342 N   0  0  0  0  0  0  0  0  0  0  0  0
  -10.7814  -22.4114   12.4013 C   0  0  0  0  0  0  0  0  0  0  0  0
  -10.2640  -22.2918   11.1953 N   0  0  0  0  0  0  0  0  0  0  0  0
  -10.0274  -20.9476   11.0424 C   0  0  0  0  0  0  0  0  0  0  0  0
  -10.4203  -20.2487   12.1733 C   0  0  0  0  0  0  0  0  0  0  0  0
  -10.3338  -18.9216   12.3641 N   0  0  0  0  0  0  0  0  0  0  0  0
   -9.8057  -18.2730   11.3024 C   0  0  0  0  0  0  0  0  0  0  0  0
   -9.3808  -18.8370   10.1545 N   0  0  0  0  0  0  0  0  0  0  0  0
   -9.4895  -20.1691   10.0244 C   0  0  0  0  0  0  0  0  0  0  0  0
   -9.0330  -20.6622    8.8349 O   0  0  0  0  0  0  0  0  0  0  0  0
   -9.7222  -16.8901   11.4793 N   0  0  0  0  0  0  0  0  0  0  0  0
   -8.5796  -16.1798   11.7761 C   0  0  0  0  0  0  0  0  0  0  0  0
   -7.4445  -16.6221   11.9131 O   0  0  0  0  0  0  0  0  0  0  0  0
   -8.8524  -14.7024   11.8973 C   0  0  0  0  0  0  0  0  0  0  0  0
  1  2  1  0
  2  3  1  0
  3  4  1  0
  4  5  2  0
  4  6  1  0
  6  7  1  0
  7  8  1  0
  7 17  1  0
  8  9  1  0
  8 14  1  0
  9 10  1  0
  9 16  1  0
 10 11  1  0
 11 12  1  0
 12 13  2  0
 12 14  1  0
 12 15  1  0
 16 17  1  0
 17 18  1  0
 18 19  1  0
 18 22  1  0
 19 20  2  0
 20 21  1  0
 21 22  2  0
 21 26  1  0
 22 23  1  0
 23 24  2  0
 24 25  1  0
 24 28  1  0
 25 26  2  0
 26 27  1  0
 28 29  1  0
 29 30  2  0
 29 31  1  0
M  END
>  <Gold.Gold.Protein.RotatedWaterAtoms>  (55) 


>  <Gold.Id.Protein>  (55) 


>  <Gold.PLP.Chemscore.CHOScore>  (55) 
0.0000

>  <Gold.PLP.Chemscore.Hbond>  (55) 
1.2080

>  <Gold.PLP.Chemscore.Internal.Correction>  (55) 
0.1232

>  <Gold.PLP.Chemscore.Metal>  (55) 
0.0000

>  <Gold.PLP.Fitness>  (55) 
47.7145

>  <Gold.PLP.PLP>  (55) 
-46.0218

>  <Gold.PLP.ligand.clash>  (55) 
0.0000

>  <Gold.PLP.ligand.torsion>  (55) 
1.0272

>  <Gold.PLP.part.buried>  (55) 
-2.2958

>  <Gold.PLP.part.hbond>  (55) 
-4.0214

>  <Gold.PLP.part.metal>  (55) 
0.0000

>  <Gold.PLP.part.nonpolar>  (55) 
-41.4699

>  <Gold.PLP.part.repulsive>  (55) 
0.9524

>  <Gold.Protein.RotatedAtoms>  (55) 


>  <Gold.Protein.RotatedTorsions>  (55) 


>  <Gold.Protein.RotatedWaterAtoms>  (55) 


>  <Gold.Version>  (55) 
5.3.0

>  <PLP.Chemscore.CHOScore>  (55) 


>  <PLP.Chemscore.Hbond>  (55) 


>  <PLP.Chemscore.Internal.Correction>  (55) 


>  <PLP.Chemscore.Metal>  (55) 


>  <PLP.Fitness>  (55) 


>  <PLP.PLP>  (55) 


>  <PLP.ligand.clash>  (55) 


>  <PLP.ligand.torsion>  (55) 


>  <PLP.part.buried>  (55) 


>  <PLP.part.hbond>  (55) 


>  <PLP.part.metal>  (55) 


>  <PLP.part.nonpolar>  (55) 


>  <PLP.part.repulsive>  (55) 


>  <RMSD>  (55) 
0.291955871297

>  <Torsion>  (55) 
171.923704933

>  <TorsionO>  (55) 
6.03609353985

>  <TorsionR>  (55) 
177.959798473

>  <Version>  (55) 


>  <product>  (55) 
25|Compound_12|Compounds_3D_F|sdf|5|dock6|1

>  <rmsd>  (55) 
-1

$$$$
193|32168_281|Aromatic_primary_amines_F|sdf|39|dock6|1
     RDKit          3D

 23 25  0  0  0  0  0  0  0  0999 V2000
   -7.8439  -12.1461   11.8919 C   0  0  0  0  0  0  0  0  0  0  0  0
   -8.5691  -13.4472   11.6781 C   0  0  0  0  0  0  0  0  0  0  0  0
   -9.7886  -13.4981   11.5208 O   0  0  0  0  0  0  0  0  0  0  0  0
   -7.7264  -14.5390   11.7020 N   0  0  0  0  0  0  0  0  0  0  0  0
   -8.1889  -15.8197   11.5323 C   0  0  0  0  0  0  0  0  0  0  0  0
   -9.4747  -16.2039   11.8163 N   0  0  0  0  0  0  0  0  0  0  0  0
   -9.5964  -17.5375   11.5379 C   0  0  0  0  0  0  0  0  0  0  0  0
  -10.6643  -18.4283   11.6415 C   0  0  0  0  0  0  0  0  0  0  0  0
  -10.4051  -19.7586   11.2778 C   0  0  0  0  0  0  0  0  0  0  0  0
   -9.1530  -20.1507   10.7795 C   0  0  0  0  0  0  0  0  0  0  0  0
   -8.1017  -19.2294   10.6839 C   0  0  0  0  0  0  0  0  0  0  0  0
   -8.3349  -17.9032   11.0783 C   0  0  0  0  0  0  0  0  0  0  0  0
   -7.4773  -16.8281   11.0838 N   0  0  0  0  0  0  0  0  0  0  0  0
   -8.8530  -21.7658   10.2429 Cl  0  0  0  0  0  0  0  0  0  0  0  0
  -11.4669  -20.6323   11.3734 O   0  0  0  0  0  0  0  0  0  0  0  0
  -12.5262  -20.4408   10.5053 C   0  0  0  0  0  0  0  0  0  0  0  0
  -13.3188  -19.2846   10.5304 C   0  0  0  0  0  0  0  0  0  0  0  0
  -14.3665  -19.1344    9.6224 C   0  0  0  0  0  0  0  0  0  0  0  0
  -14.6219  -20.1279    8.6796 C   0  0  0  0  0  0  0  0  0  0  0  0
  -13.8238  -21.2756    8.6345 C   0  0  0  0  0  0  0  0  0  0  0  0
  -12.7674  -21.4342    9.5416 C   0  0  0  0  0  0  0  0  0  0  0  0
  -11.7588  -22.8458    9.4996 Cl  0  0  0  0  0  0  0  0  0  0  0  0
  -14.1988  -22.4584    7.4296 Cl  0  0  0  0  0  0  0  0  0  0  0  0
  1  2  1  0
  2  3  2  0
  2  4  1  0
  4  5  1  0
  5  6  1  0
  5 13  2  0
  6  7  1  0
  7  8  2  0
  7 12  1  0
  8  9  1  0
  9 10  2  0
  9 15  1  0
 10 11  1  0
 10 14  1  0
 11 12  2  0
 12 13  1  0
 15 16  1  0
 16 17  2  0
 16 21  1  0
 17 18  1  0
 18 19  2  0
 19 20  1  0
 20 21  2  0
 20 23  1  0
 21 22  1  0
M  END
>  <Gold.Gold.Protein.RotatedWaterAtoms>  (56) 


>  <Gold.Id.Protein>  (56) 


>  <Gold.PLP.Chemscore.CHOScore>  (56) 
0.0000

>  <Gold.PLP.Chemscore.Hbond>  (56) 
1.0000

>  <Gold.PLP.Chemscore.Internal.Correction>  (56) 
0.0086

>  <Gold.PLP.Chemscore.Metal>  (56) 
0.0000

>  <Gold.PLP.Fitness>  (56) 
50.7139

>  <Gold.PLP.PLP>  (56) 
-48.1706

>  <Gold.PLP.ligand.clash>  (56) 
0.0000

>  <Gold.PLP.ligand.torsion>  (56) 
0.2327

>  <Gold.PLP.part.buried>  (56) 
-6.5205

>  <Gold.PLP.part.hbond>  (56) 
-2.0000

>  <Gold.PLP.part.metal>  (56) 
0.0000

>  <Gold.PLP.part.nonpolar>  (56) 
-39.3857

>  <Gold.PLP.part.repulsive>  (56) 
0.3298

>  <Gold.Protein.RotatedAtoms>  (56) 


>  <Gold.Protein.RotatedTorsions>  (56) 


>  <Gold.Protein.RotatedWaterAtoms>  (56) 


>  <Gold.Version>  (56) 
5.3.0

>  <PLP.Chemscore.CHOScore>  (56) 


>  <PLP.Chemscore.Hbond>  (56) 


>  <PLP.Chemscore.Internal.Correction>  (56) 


>  <PLP.Chemscore.Metal>  (56) 


>  <PLP.Fitness>  (56) 


>  <PLP.PLP>  (56) 


>  <PLP.ligand.clash>  (56) 


>  <PLP.ligand.torsion>  (56) 


>  <PLP.part.buried>  (56) 


>  <PLP.part.hbond>  (56) 


>  <PLP.part.metal>  (56) 


>  <PLP.part.nonpolar>  (56) 


>  <PLP.part.repulsive>  (56) 


>  <RMSD>  (56) 
0.439733510035

>  <Torsion>  (56) 
177.672185574

>  <TorsionO>  (56) 
4.31728583372

>  <TorsionR>  (56) 
173.35489974

>  <Version>  (56) 


>  <product>  (56) 
25|Compound_12|Compounds_3D_F|sdf|5|dock6|1

>  <rmsd>  (56) 
-1

$$$$
79|Compound_31|Compounds_3D_F|sdf|13|dock5|1
     RDKit          3D

 10  9  0  0  0  0  0  0  0  0999 V2000
  -14.1956  -19.9993    8.0070 O   0  0  0  0  0  0  0  0  0  0  0  0
  -13.8019  -19.2793    9.0683 C   0  0  0  0  0  0  0  0  0  0  0  0
  -13.5205  -18.1110    8.9364 O   0  0  0  0  0  0  0  0  0  0  0  0
  -13.7095  -19.9269   10.4261 C   0  0  0  0  0  0  0  0  0  0  0  0
  -15.0238  -20.2024   10.9139 O   0  0  0  0  0  0  0  0  0  0  0  0
  -12.9941  -18.9821   11.3941 C   0  0  0  0  0  0  0  0  0  0  0  0
  -11.5549  -18.9976   11.1176 N   0  0  0  0  0  0  0  0  0  0  0  0
  -10.7421  -18.1106   11.7245 C   0  0  0  0  0  0  0  0  0  0  0  0
  -11.2024  -17.2992   12.4994 O   0  0  0  0  0  0  0  0  0  0  0  0
   -9.2007  -18.1281   11.4287 B   0  0  0  0  0  0  0  0  0  0  0  0
  1  2  1  0
  2  3  2  0
  2  4  1  0
  4  5  1  0
  4  6  1  0
  6  7  1  0
  7  8  1  0
  8  9  2  0
  8 10  1  0
M  END
>  <Gold.Gold.Protein.RotatedWaterAtoms>  (57) 


>  <Gold.Id.Protein>  (57) 


>  <Gold.PLP.Chemscore.CHOScore>  (57) 
0.0000

>  <Gold.PLP.Chemscore.Hbond>  (57) 
4.0000

>  <Gold.PLP.Chemscore.Internal.Correction>  (57) 
0.0008

>  <Gold.PLP.Chemscore.Metal>  (57) 
0.0000

>  <Gold.PLP.Fitness>  (57) 
32.7633

>  <Gold.PLP.PLP>  (57) 
-21.5019

>  <Gold.PLP.ligand.clash>  (57) 
0.0000

>  <Gold.PLP.ligand.torsion>  (57) 
0.3697

>  <Gold.PLP.part.buried>  (57) 
-2.6473

>  <Gold.PLP.part.hbond>  (57) 
-5.0000

>  <Gold.PLP.part.metal>  (57) 
0.0000

>  <Gold.PLP.part.nonpolar>  (57) 
-13.3074

>  <Gold.PLP.part.repulsive>  (57) 
0.1765

>  <Gold.Protein.RotatedAtoms>  (57) 


>  <Gold.Protein.RotatedTorsions>  (57) 


>  <Gold.Protein.RotatedWaterAtoms>  (57) 


>  <Gold.Version>  (57) 
5.3.0

>  <PLP.Chemscore.CHOScore>  (57) 


>  <PLP.Chemscore.Hbond>  (57) 


>  <PLP.Chemscore.Internal.Correction>  (57) 


>  <PLP.Chemscore.Metal>  (57) 


>  <PLP.Fitness>  (57) 


>  <PLP.PLP>  (57) 


>  <PLP.ligand.clash>  (57) 


>  <PLP.ligand.torsion>  (57) 


>  <PLP.part.buried>  (57) 


>  <PLP.part.hbond>  (57) 


>  <PLP.part.metal>  (57) 


>  <PLP.part.nonpolar>  (57) 


>  <PLP.part.repulsive>  (57) 


>  <Version>  (57) 


$$$$
94|664022_40|Aromatic_carboxylic_acids_F|sdf|24|dock1|1
     RDKit          3D

 12 12  0  0  0  0  0  0  0  0999 V2000
   -8.2596  -17.1212   11.4595 C   0  0  0  0  0  0  0  0  0  0  0  0
   -7.6366  -15.8367   11.6688 N   0  0  0  0  0  0  0  0  0  0  0  0
   -8.3409  -14.6553   11.5719 C   0  0  0  0  0  0  0  0  0  0  0  0
   -9.5296  -14.5547   11.2978 O   0  0  0  0  0  0  0  0  0  0  0  0
   -7.5420  -13.4431   11.8503 C   0  0  0  0  0  0  0  0  0  0  0  0
   -8.1627  -12.1983   11.6738 C   0  0  0  0  0  0  0  0  0  0  0  0
   -7.4390  -11.0301   11.9055 C   0  0  0  0  0  0  0  0  0  0  0  0
   -6.1069  -11.0910   12.3103 C   0  0  0  0  0  0  0  0  0  0  0  0
   -5.4897  -12.3324   12.4853 C   0  0  0  0  0  0  0  0  0  0  0  0
   -6.2035  -13.5136   12.2549 C   0  0  0  0  0  0  0  0  0  0  0  0
   -5.3062  -15.1564   12.5638 Br  0  0  0  0  0  0  0  0  0  0  0  0
   -8.1960   -9.5005   11.6887 Cl  0  0  0  0  0  0  0  0  0  0  0  0
  1  2  1  0
  2  3  1  0
  3  4  2  0
  3  5  1  0
  5  6  2  0
  5 10  1  0
  6  7  1  0
  7  8  2  0
  7 12  1  0
  8  9  1  0
  9 10  2  0
 10 11  1  0
M  END
>  <Gold.Gold.Protein.RotatedWaterAtoms>  (58) 


>  <Gold.Id.Protein>  (58) 


>  <Gold.PLP.Chemscore.CHOScore>  (58) 
0.0000

>  <Gold.PLP.Chemscore.Hbond>  (58) 
0.4160

>  <Gold.PLP.Chemscore.Internal.Correction>  (58) 
0.0004

>  <Gold.PLP.Chemscore.Metal>  (58) 
0.0000

>  <Gold.PLP.Fitness>  (58) 
48.9046

>  <Gold.PLP.PLP>  (58) 
-47.6744

>  <Gold.PLP.ligand.clash>  (58) 
0.0000

>  <Gold.PLP.ligand.torsion>  (58) 
0.0091

>  <Gold.PLP.part.buried>  (58) 
-7.3578

>  <Gold.PLP.part.hbond>  (58) 
-0.5127

>  <Gold.PLP.part.metal>  (58) 
0.0000

>  <Gold.PLP.part.nonpolar>  (58) 
-40.3098

>  <Gold.PLP.part.repulsive>  (58) 
0.1684

>  <Gold.Protein.RotatedAtoms>  (58) 


>  <Gold.Protein.RotatedTorsions>  (58) 


>  <Gold.Protein.RotatedWaterAtoms>  (58) 


>  <Gold.Version>  (58) 
5.3.0

>  <PLP.Chemscore.CHOScore>  (58) 


>  <PLP.Chemscore.Hbond>  (58) 


>  <PLP.Chemscore.Internal.Correction>  (58) 


>  <PLP.Chemscore.Metal>  (58) 


>  <PLP.Fitness>  (58) 


>  <PLP.PLP>  (58) 


>  <PLP.ligand.clash>  (58) 


>  <PLP.ligand.torsion>  (58) 


>  <PLP.part.buried>  (58) 


>  <PLP.part.hbond>  (58) 


>  <PLP.part.metal>  (58) 


>  <PLP.part.nonpolar>  (58) 


>  <PLP.part.repulsive>  (58) 


>  <RMSD>  (58) 
0.30972197429

>  <Torsion>  (58) 
172.929186758

>  <TorsionO>  (58) 
24.4968065243

>  <TorsionR>  (58) 
162.574006718

>  <Version>  (58) 


>  <product>  (58) 
79|Compound_31|Compounds_3D_F|sdf|13|dock5|1

>  <rmsd>  (58) 
-1

$$$$
110|565385_49|Aromatic_carboxylic_acids_F|sdf|29|dock1|1
     RDKit          3D

 13 13  0  0  0  0  0  0  0  0999 V2000
  -10.1118  -17.9021   11.6320 C   0  0  0  0  0  0  0  0  0  0  0  0
   -9.7537  -16.5043   11.6546 N   0  0  0  0  0  0  0  0  0  0  0  0
   -8.4330  -16.1187   11.7930 C   0  0  0  0  0  0  0  0  0  0  0  0
   -7.5159  -16.9298   11.9008 O   0  0  0  0  0  0  0  0  0  0  0  0
   -8.1234  -14.6552   11.8105 C   0  0  0  0  0  0  0  0  0  0  0  0
   -9.0636  -13.6551   11.5375 C   0  0  0  0  0  0  0  0  0  0  0  0
   -8.6966  -12.3009   11.5726 C   0  0  0  0  0  0  0  0  0  0  0  0
   -7.3879  -11.9195   11.8809 C   0  0  0  0  0  0  0  0  0  0  0  0
   -6.4486  -12.9235   12.1551 C   0  0  0  0  0  0  0  0  0  0  0  0
   -6.8098  -14.2750   12.1207 C   0  0  0  0  0  0  0  0  0  0  0  0
   -4.6444  -12.5025   12.5849 Br  0  0  0  0  0  0  0  0  0  0  0  0
   -6.9476  -10.6242   11.9372 O   0  0  0  0  0  0  0  0  0  0  0  0
   -7.9020   -9.5910   11.7256 C   0  0  0  0  0  0  0  0  0  0  0  0
  1  2  1  0
  2  3  1  0
  3  4  2  0
  3  5  1  0
  5  6  2  0
  5 10  1  0
  6  7  1  0
  7  8  2  0
  8  9  1  0
  8 12  1  0
  9 10  2  0
  9 11  1  0
 12 13  1  0
M  END
>  <Gold.Gold.Protein.RotatedWaterAtoms>  (59) 


>  <Gold.Id.Protein>  (59) 


>  <Gold.PLP.Chemscore.CHOScore>  (59) 
0.0000

>  <Gold.PLP.Chemscore.Hbond>  (59) 
1.0000

>  <Gold.PLP.Chemscore.Internal.Correction>  (59) 
0.0000

>  <Gold.PLP.Chemscore.Metal>  (59) 
0.0000

>  <Gold.PLP.Fitness>  (59) 
43.9775

>  <Gold.PLP.PLP>  (59) 
-41.0517

>  <Gold.PLP.ligand.clash>  (59) 
0.0000

>  <Gold.PLP.ligand.torsion>  (59) 
0.0371

>  <Gold.PLP.part.buried>  (59) 
-3.7367

>  <Gold.PLP.part.hbond>  (59) 
-1.0000

>  <Gold.PLP.part.metal>  (59) 
0.0000

>  <Gold.PLP.part.nonpolar>  (59) 
-36.7483

>  <Gold.PLP.part.repulsive>  (59) 
0.4054

>  <Gold.Protein.RotatedAtoms>  (59) 


>  <Gold.Protein.RotatedTorsions>  (59) 


>  <Gold.Protein.RotatedWaterAtoms>  (59) 


>  <Gold.Version>  (59) 
5.3.0

>  <PLP.Chemscore.CHOScore>  (59) 


>  <PLP.Chemscore.Hbond>  (59) 


>  <PLP.Chemscore.Internal.Correction>  (59) 


>  <PLP.Chemscore.Metal>  (59) 


>  <PLP.Fitness>  (59) 


>  <PLP.PLP>  (59) 


>  <PLP.ligand.clash>  (59) 


>  <PLP.ligand.torsion>  (59) 


>  <PLP.part.buried>  (59) 


>  <PLP.part.hbond>  (59) 


>  <PLP.part.metal>  (59) 


>  <PLP.part.nonpolar>  (59) 


>  <PLP.part.repulsive>  (59) 


>  <RMSD>  (59) 
0.319376411377

>  <Torsion>  (59) 
169.460450784

>  <TorsionO>  (59) 
9.7963905484

>  <TorsionR>  (59) 
179.256841332

>  <Version>  (59) 


>  <product>  (59) 
79|Compound_31|Compounds_3D_F|sdf|13|dock5|1

>  <rmsd>  (59) 
-1

$$$$
128|137677_56|Aromatic_carboxylic_acids_F|sdf|33|dock1|1
     RDKit          3D

 11 11  0  0  0  0  0  0  0  0999 V2000
   -8.6116  -16.1544   11.8887 C   0  0  0  0  0  0  0  0  0  0  0  0
   -7.9978  -14.8484   11.9215 N   0  0  0  0  0  0  0  0  0  0  0  0
   -8.7778  -13.7008   11.8756 C   0  0  0  0  0  0  0  0  0  0  0  0
  -10.0002  -13.7896   11.8139 O   0  0  0  0  0  0  0  0  0  0  0  0
   -8.0808  -12.3609   11.9017 C   0  0  0  0  0  0  0  0  0  0  0  0
   -8.7916  -11.1851   11.5813 C   0  0  0  0  0  0  0  0  0  0  0  0
   -8.1781   -9.9267   11.5989 C   0  0  0  0  0  0  0  0  0  0  0  0
   -6.8391   -9.8089   11.9369 C   0  0  0  0  0  0  0  0  0  0  0  0
   -6.1124  -10.9502   12.2575 C   0  0  0  0  0  0  0  0  0  0  0  0
   -6.7171  -12.2196   12.2428 C   0  0  0  0  0  0  0  0  0  0  0  0
   -5.5419  -13.6455   12.7121 Br  0  0  0  0  0  0  0  0  0  0  0  0
  1  2  1  0
  2  3  1  0
  3  4  2  0
  3  5  1  0
  5  6  2  0
  5 10  1  0
  6  7  1  0
  7  8  2  0
  8  9  1  0
  9 10  2  0
 10 11  1  0
M  END
>  <Gold.Gold.Protein.RotatedWaterAtoms>  (60) 


>  <Gold.Id.Protein>  (60) 


>  <Gold.PLP.Chemscore.CHOScore>  (60) 
0.0000

>  <Gold.PLP.Chemscore.Hbond>  (60) 
1.0000

>  <Gold.PLP.Chemscore.Internal.Correction>  (60) 
0.0000

>  <Gold.PLP.Chemscore.Metal>  (60) 
0.0000

>  <Gold.PLP.Fitness>  (60) 
45.2899

>  <Gold.PLP.PLP>  (60) 
-42.4444

>  <Gold.PLP.ligand.clash>  (60) 
0.0000

>  <Gold.PLP.ligand.torsion>  (60) 
0.0772

>  <Gold.PLP.part.buried>  (60) 
-6.4690

>  <Gold.PLP.part.hbond>  (60) 
-0.6863

>  <Gold.PLP.part.metal>  (60) 
0.0000

>  <Gold.PLP.part.nonpolar>  (60) 
-34.8280

>  <Gold.PLP.part.repulsive>  (60) 
0.1963

>  <Gold.Protein.RotatedAtoms>  (60) 


>  <Gold.Protein.RotatedTorsions>  (60) 


>  <Gold.Protein.RotatedWaterAtoms>  (60) 


>  <Gold.Version>  (60) 
5.3.0

>  <PLP.Chemscore.CHOScore>  (60) 


>  <PLP.Chemscore.Hbond>  (60) 


>  <PLP.Chemscore.Internal.Correction>  (60) 


>  <PLP.Chemscore.Metal>  (60) 


>  <PLP.Fitness>  (60) 


>  <PLP.PLP>  (60) 


>  <PLP.ligand.clash>  (60) 


>  <PLP.ligand.torsion>  (60) 


>  <PLP.part.buried>  (60) 


>  <PLP.part.hbond>  (60) 


>  <PLP.part.metal>  (60) 


>  <PLP.part.nonpolar>  (60) 


>  <PLP.part.repulsive>  (60) 


>  <RMSD>  (60) 
0.428070490903

>  <Torsion>  (60) 
152.444048788

>  <TorsionO>  (60) 
39.0580871276

>  <TorsionR>  (60) 
168.497864085

>  <Version>  (60) 


>  <product>  (60) 
79|Compound_31|Compounds_3D_F|sdf|13|dock5|1

>  <rmsd>  (60) 
-1

$$$$
974|750794_1404|Aromatic_primary_amines_F|sdf|194|dock3|1
     RDKit          3D

 14 14  0  0  0  0  0  0  0  0999 V2000
  -13.6355  -18.1936    9.4145 C   0  0  0  0  0  0  0  0  0  0  0  0
  -13.2544  -19.4497   10.1732 C   0  0  0  0  0  0  0  0  0  0  0  0
  -11.8731  -19.3506   10.5383 O   0  0  0  0  0  0  0  0  0  0  0  0
  -11.6148  -18.5085   11.5823 C   0  0  0  0  0  0  0  0  0  0  0  0
  -12.3947  -18.2810   12.5004 O   0  0  0  0  0  0  0  0  0  0  0  0
  -10.3031  -17.8985   11.4902 C   0  0  0  0  0  0  0  0  0  0  0  0
   -9.1673  -18.4974   10.9931 C   0  0  0  0  0  0  0  0  0  0  0  0
   -8.1448  -17.6055   11.0758 O   0  0  0  0  0  0  0  0  0  0  0  0
   -8.7110  -16.4917   11.6237 C   0  0  0  0  0  0  0  0  0  0  0  0
   -9.9933  -16.6110   11.8915 N   0  0  0  0  0  0  0  0  0  0  0  0
   -7.9611  -15.3718   11.8549 N   0  0  0  0  0  0  0  0  0  0  0  0
   -8.5046  -14.1249   12.0676 C   0  0  0  0  0  0  0  0  0  0  0  0
   -9.6950  -13.8313   12.1035 O   0  0  0  0  0  0  0  0  0  0  0  0
   -7.4448  -13.0785   12.3021 C   0  0  0  0  0  0  0  0  0  0  0  0
  1  2  1  0
  2  3  1  0
  3  4  1  0
  4  5  2  0
  4  6  1  0
  6  7  2  0
  6 10  1  0
  7  8  1  0
  8  9  1  0
  9 10  2  0
  9 11  1  0
 11 12  1  0
 12 13  2  0
 12 14  1  0
M  END
>  <Gold.Gold.Protein.RotatedWaterAtoms>  (61) 


>  <Gold.Id.Protein>  (61) 


>  <Gold.PLP.Chemscore.CHOScore>  (61) 
0.0000

>  <Gold.PLP.Chemscore.Hbond>  (61) 
2.0000

>  <Gold.PLP.Chemscore.Internal.Correction>  (61) 
0.0053

>  <Gold.PLP.Chemscore.Metal>  (61) 
0.0000

>  <Gold.PLP.Fitness>  (61) 
36.8047

>  <Gold.PLP.PLP>  (61) 
-32.7996

>  <Gold.PLP.ligand.clash>  (61) 
0.0000

>  <Gold.PLP.ligand.torsion>  (61) 
1.0001

>  <Gold.PLP.part.buried>  (61) 
-6.5206

>  <Gold.PLP.part.hbond>  (61) 
-2.9156

>  <Gold.PLP.part.metal>  (61) 
0.0000

>  <Gold.PLP.part.nonpolar>  (61) 
-23.4080

>  <Gold.PLP.part.repulsive>  (61) 
0.3100

>  <Gold.Protein.RotatedAtoms>  (61) 


>  <Gold.Protein.RotatedTorsions>  (61) 


>  <Gold.Protein.RotatedWaterAtoms>  (61) 


>  <Gold.Version>  (61) 
5.3.0

>  <PLP.Chemscore.CHOScore>  (61) 


>  <PLP.Chemscore.Hbond>  (61) 


>  <PLP.Chemscore.Internal.Correction>  (61) 


>  <PLP.Chemscore.Metal>  (61) 


>  <PLP.Fitness>  (61) 


>  <PLP.PLP>  (61) 


>  <PLP.ligand.clash>  (61) 


>  <PLP.ligand.torsion>  (61) 


>  <PLP.part.buried>  (61) 


>  <PLP.part.hbond>  (61) 


>  <PLP.part.metal>  (61) 


>  <PLP.part.nonpolar>  (61) 


>  <PLP.part.repulsive>  (61) 


>  <RMSD>  (61) 
0.499949349045

>  <Torsion>  (61) 
159.973716791

>  <TorsionO>  (61) 
19.1052109979

>  <TorsionR>  (61) 
179.078927789

>  <Version>  (61) 


>  <product>  (61) 
79|Compound_31|Compounds_3D_F|sdf|13|dock5|1

>  <rmsd>  (61) 
-1

$$$$
1884|M3006_1781|Aromatic_primary_amines_F|sdf|361|dock3|1
     RDKit          3D

 31 34  0  0  0  0  0  0  0  0999 V2000
  -14.4210  -19.8971    8.7934 C   0  0  0  0  0  0  0  0  0  0  0  0
  -13.9762  -19.4927   10.1894 C   0  0  0  0  0  0  0  0  0  0  0  0
  -14.1356  -20.6409   11.1817 C   0  0  0  0  0  0  0  0  0  0  0  0
  -13.5197  -20.3070   12.5189 C   0  0  0  0  0  0  0  0  0  0  0  0
  -12.9307  -19.2724   12.7954 O   0  0  0  0  0  0  0  0  0  0  0  0
  -13.7110  -21.3451   13.3845 O   0  0  0  0  0  0  0  0  0  0  0  0
  -12.9425  -21.2698   14.5900 C   0  0  0  0  0  0  0  0  0  0  0  0
  -12.8849  -22.6189   15.2889 C   0  0  0  0  0  0  0  0  0  0  0  0
  -11.6552  -22.4172   16.1494 C   0  0  0  0  0  0  0  0  0  0  0  0
  -11.2420  -23.7410   16.7624 C   0  0  0  0  0  0  0  0  0  0  0  0
  -12.3024  -24.2223   17.5862 O   0  0  0  0  0  0  0  0  0  0  0  0
  -13.7888  -24.3384   16.9603 P   0  0  0  0  0  0  0  0  0  0  0  0
  -14.8775  -24.6795   17.9243 O   0  0  0  0  0  0  0  0  0  0  0  0
  -13.9839  -22.9641   16.1174 O   0  0  0  0  0  0  0  0  0  0  0  0
  -13.5991  -25.4435   15.8075 O   0  0  0  0  0  0  0  0  0  0  0  0
  -10.6922  -21.8161   15.2889 O   0  0  0  0  0  0  0  0  0  0  0  0
  -11.4338  -20.9664   14.3653 C   0  0  0  0  0  0  0  0  0  0  0  0
  -10.9052  -21.2017   13.0342 N   0  0  0  0  0  0  0  0  0  0  0  0
  -10.7814  -22.4114   12.4013 C   0  0  0  0  0  0  0  0  0  0  0  0
  -10.2640  -22.2918   11.1953 N   0  0  0  0  0  0  0  0  0  0  0  0
  -10.0274  -20.9476   11.0424 C   0  0  0  0  0  0  0  0  0  0  0  0
  -10.4203  -20.2487   12.1733 C   0  0  0  0  0  0  0  0  0  0  0  0
  -10.3338  -18.9216   12.3641 N   0  0  0  0  0  0  0  0  0  0  0  0
   -9.8057  -18.2730   11.3024 C   0  0  0  0  0  0  0  0  0  0  0  0
   -9.3808  -18.8370   10.1545 N   0  0  0  0  0  0  0  0  0  0  0  0
   -9.4895  -20.1691   10.0244 C   0  0  0  0  0  0  0  0  0  0  0  0
   -9.0330  -20.6622    8.8349 O   0  0  0  0  0  0  0  0  0  0  0  0
   -9.7222  -16.8901   11.4793 N   0  0  0  0  0  0  0  0  0  0  0  0
   -8.5796  -16.1798   11.7761 C   0  0  0  0  0  0  0  0  0  0  0  0
   -7.4445  -16.6221   11.9131 O   0  0  0  0  0  0  0  0  0  0  0  0
   -8.8524  -14.7024   11.8973 C   0  0  0  0  0  0  0  0  0  0  0  0
  1  2  1  0
  2  3  1  0
  3  4  1  0
  4  5  2  0
  4  6  1  0
  6  7  1  0
  7  8  1  0
  7 17  1  0
  8  9  1  0
  8 14  1  0
  9 10  1  0
  9 16  1  0
 10 11  1  0
 11 12  1  0
 12 13  2  0
 12 14  1  0
 12 15  1  0
 16 17  1  0
 17 18  1  0
 18 19  1  0
 18 22  1  0
 19 20  2  0
 20 21  1  0
 21 22  2  0
 21 26  1  0
 22 23  1  0
 23 24  2  0
 24 25  1  0
 24 28  1  0
 25 26  2  0
 26 27  1  0
 28 29  1  0
 29 30  2  0
 29 31  1  0
M  END
>  <Gold.Gold.Protein.RotatedWaterAtoms>  (62) 


>  <Gold.Id.Protein>  (62) 


>  <Gold.PLP.Chemscore.CHOScore>  (62) 
0.0000

>  <Gold.PLP.Chemscore.Hbond>  (62) 
1.2080

>  <Gold.PLP.Chemscore.Internal.Correction>  (62) 
0.1232

>  <Gold.PLP.Chemscore.Metal>  (62) 
0.0000

>  <Gold.PLP.Fitness>  (62) 
47.7145

>  <Gold.PLP.PLP>  (62) 
-46.0218

>  <Gold.PLP.ligand.clash>  (62) 
0.0000

>  <Gold.PLP.ligand.torsion>  (62) 
1.0272

>  <Gold.PLP.part.buried>  (62) 
-2.2958

>  <Gold.PLP.part.hbond>  (62) 
-4.0214

>  <Gold.PLP.part.metal>  (62) 
0.0000

>  <Gold.PLP.part.nonpolar>  (62) 
-41.4699

>  <Gold.PLP.part.repulsive>  (62) 
0.9524

>  <Gold.Protein.RotatedAtoms>  (62) 


>  <Gold.Protein.RotatedTorsions>  (62) 


>  <Gold.Protein.RotatedWaterAtoms>  (62) 


>  <Gold.Version>  (62) 
5.3.0

>  <PLP.Chemscore.CHOScore>  (62) 


>  <PLP.Chemscore.Hbond>  (62) 


>  <PLP.Chemscore.Internal.Correction>  (62) 


>  <PLP.Chemscore.Metal>  (62) 


>  <PLP.Fitness>  (62) 


>  <PLP.PLP>  (62) 


>  <PLP.ligand.clash>  (62) 


>  <PLP.ligand.torsion>  (62) 


>  <PLP.part.buried>  (62) 


>  <PLP.part.hbond>  (62) 


>  <PLP.part.metal>  (62) 


>  <PLP.part.nonpolar>  (62) 


>  <PLP.part.repulsive>  (62) 


>  <RMSD>  (62) 
0.291955871297

>  <Torsion>  (62) 
171.923704933

>  <TorsionO>  (62) 
6.03609353985

>  <TorsionR>  (62) 
177.959798473

>  <Version>  (62) 


>  <product>  (62) 
79|Compound_31|Compounds_3D_F|sdf|13|dock5|1

>  <rmsd>  (62) 
-1

$$$$
193|32168_281|Aromatic_primary_amines_F|sdf|39|dock6|1
     RDKit          3D

 23 25  0  0  0  0  0  0  0  0999 V2000
   -7.8439  -12.1461   11.8919 C   0  0  0  0  0  0  0  0  0  0  0  0
   -8.5691  -13.4472   11.6781 C   0  0  0  0  0  0  0  0  0  0  0  0
   -9.7886  -13.4981   11.5208 O   0  0  0  0  0  0  0  0  0  0  0  0
   -7.7264  -14.5390   11.7020 N   0  0  0  0  0  0  0  0  0  0  0  0
   -8.1889  -15.8197   11.5323 C   0  0  0  0  0  0  0  0  0  0  0  0
   -9.4747  -16.2039   11.8163 N   0  0  0  0  0  0  0  0  0  0  0  0
   -9.5964  -17.5375   11.5379 C   0  0  0  0  0  0  0  0  0  0  0  0
  -10.6643  -18.4283   11.6415 C   0  0  0  0  0  0  0  0  0  0  0  0
  -10.4051  -19.7586   11.2778 C   0  0  0  0  0  0  0  0  0  0  0  0
   -9.1530  -20.1507   10.7795 C   0  0  0  0  0  0  0  0  0  0  0  0
   -8.1017  -19.2294   10.6839 C   0  0  0  0  0  0  0  0  0  0  0  0
   -8.3349  -17.9032   11.0783 C   0  0  0  0  0  0  0  0  0  0  0  0
   -7.4773  -16.8281   11.0838 N   0  0  0  0  0  0  0  0  0  0  0  0
   -8.8530  -21.7658   10.2429 Cl  0  0  0  0  0  0  0  0  0  0  0  0
  -11.4669  -20.6323   11.3734 O   0  0  0  0  0  0  0  0  0  0  0  0
  -12.5262  -20.4408   10.5053 C   0  0  0  0  0  0  0  0  0  0  0  0
  -13.3188  -19.2846   10.5304 C   0  0  0  0  0  0  0  0  0  0  0  0
  -14.3665  -19.1344    9.6224 C   0  0  0  0  0  0  0  0  0  0  0  0
  -14.6219  -20.1279    8.6796 C   0  0  0  0  0  0  0  0  0  0  0  0
  -13.8238  -21.2756    8.6345 C   0  0  0  0  0  0  0  0  0  0  0  0
  -12.7674  -21.4342    9.5416 C   0  0  0  0  0  0  0  0  0  0  0  0
  -11.7588  -22.8458    9.4996 Cl  0  0  0  0  0  0  0  0  0  0  0  0
  -14.1988  -22.4584    7.4296 Cl  0  0  0  0  0  0  0  0  0  0  0  0
  1  2  1  0
  2  3  2  0
  2  4  1  0
  4  5  1  0
  5  6  1  0
  5 13  2  0
  6  7  1  0
  7  8  2  0
  7 12  1  0
  8  9  1  0
  9 10  2  0
  9 15  1  0
 10 11  1  0
 10 14  1  0
 11 12  2  0
 12 13  1  0
 15 16  1  0
 16 17  2  0
 16 21  1  0
 17 18  1  0
 18 19  2  0
 19 20  1  0
 20 21  2  0
 20 23  1  0
 21 22  1  0
M  END
>  <Gold.Gold.Protein.RotatedWaterAtoms>  (63) 


>  <Gold.Id.Protein>  (63) 


>  <Gold.PLP.Chemscore.CHOScore>  (63) 
0.0000

>  <Gold.PLP.Chemscore.Hbond>  (63) 
1.0000

>  <Gold.PLP.Chemscore.Internal.Correction>  (63) 
0.0086

>  <Gold.PLP.Chemscore.Metal>  (63) 
0.0000

>  <Gold.PLP.Fitness>  (63) 
50.7139

>  <Gold.PLP.PLP>  (63) 
-48.1706

>  <Gold.PLP.ligand.clash>  (63) 
0.0000

>  <Gold.PLP.ligand.torsion>  (63) 
0.2327

>  <Gold.PLP.part.buried>  (63) 
-6.5205

>  <Gold.PLP.part.hbond>  (63) 
-2.0000

>  <Gold.PLP.part.metal>  (63) 
0.0000

>  <Gold.PLP.part.nonpolar>  (63) 
-39.3857

>  <Gold.PLP.part.repulsive>  (63) 
0.3298

>  <Gold.Protein.RotatedAtoms>  (63) 


>  <Gold.Protein.RotatedTorsions>  (63) 


>  <Gold.Protein.RotatedWaterAtoms>  (63) 


>  <Gold.Version>  (63) 
5.3.0

>  <PLP.Chemscore.CHOScore>  (63) 


>  <PLP.Chemscore.Hbond>  (63) 


>  <PLP.Chemscore.Internal.Correction>  (63) 


>  <PLP.Chemscore.Metal>  (63) 


>  <PLP.Fitness>  (63) 


>  <PLP.PLP>  (63) 


>  <PLP.ligand.clash>  (63) 


>  <PLP.ligand.torsion>  (63) 


>  <PLP.part.buried>  (63) 


>  <PLP.part.hbond>  (63) 


>  <PLP.part.metal>  (63) 


>  <PLP.part.nonpolar>  (63) 


>  <PLP.part.repulsive>  (63) 


>  <RMSD>  (63) 
0.439733510035

>  <Torsion>  (63) 
177.672185574

>  <TorsionO>  (63) 
4.31728583372

>  <TorsionR>  (63) 
173.35489974

>  <Version>  (63) 


>  <product>  (63) 
79|Compound_31|Compounds_3D_F|sdf|13|dock5|1

>  <rmsd>  (63) 
-1

$$$$
16|Compound_8|Compounds_3D_F|sdf|4|dock6|1
     RDKit          3D

  8  7  0  0  0  0  0  0  0  0999 V2000
   -8.3322  -13.7148   12.8567 O   0  0  0  0  0  0  0  0  0  0  0  0
   -7.3115  -14.4837   12.2181 C   0  0  0  0  0  0  0  0  0  0  0  0
   -5.9398  -14.0227   12.7134 C   0  0  0  0  0  0  0  0  0  0  0  0
   -4.8916  -14.7636   12.0066 N   0  0  0  0  0  0  0  0  0  0  0  0
   -4.8251  -16.1058   12.1138 C   0  0  0  0  0  0  0  0  0  0  0  0
   -5.6338  -16.6990   12.7948 O   0  0  0  0  0  0  0  0  0  0  0  0
   -3.7019  -16.8988   11.3572 B   0  0  0  0  0  0  0  0  0  0  0  0
   -5.7766  -12.5255   12.4437 C   0  0  0  0  0  0  0  0  0  0  0  0
  1  2  1  0
  2  3  1  0
  3  4  1  0
  3  8  1  0
  4  5  1  0
  5  6  2  0
  5  7  1  0
M  END
>  <Gold.Gold.Protein.RotatedWaterAtoms>  (64) 


>  <Gold.Id.Protein>  (64) 


>  <Gold.PLP.Chemscore.CHOScore>  (64) 
0.0000

>  <Gold.PLP.Chemscore.Hbond>  (64) 
1.8125

>  <Gold.PLP.Chemscore.Internal.Correction>  (64) 
0.0000

>  <Gold.PLP.Chemscore.Metal>  (64) 
0.0000

>  <Gold.PLP.Fitness>  (64) 
30.7577

>  <Gold.PLP.PLP>  (64) 
-25.3312

>  <Gold.PLP.ligand.clash>  (64) 
0.0000

>  <Gold.PLP.ligand.torsion>  (64) 
0.0055

>  <Gold.PLP.part.buried>  (64) 
-5.8457

>  <Gold.PLP.part.hbond>  (64) 
-2.5818

>  <Gold.PLP.part.metal>  (64) 
0.0000

>  <Gold.PLP.part.nonpolar>  (64) 
-17.3128

>  <Gold.PLP.part.repulsive>  (64) 
0.1459

>  <Gold.Protein.RotatedAtoms>  (64) 


>  <Gold.Protein.RotatedTorsions>  (64) 


>  <Gold.Protein.RotatedWaterAtoms>  (64) 


>  <Gold.Version>  (64) 
5.3.0

>  <PLP.Chemscore.CHOScore>  (64) 


>  <PLP.Chemscore.Hbond>  (64) 


>  <PLP.Chemscore.Internal.Correction>  (64) 


>  <PLP.Chemscore.Metal>  (64) 


>  <PLP.Fitness>  (64) 


>  <PLP.PLP>  (64) 


>  <PLP.ligand.clash>  (64) 


>  <PLP.ligand.torsion>  (64) 


>  <PLP.part.buried>  (64) 


>  <PLP.part.hbond>  (64) 


>  <PLP.part.metal>  (64) 


>  <PLP.part.nonpolar>  (64) 


>  <PLP.part.repulsive>  (64) 


>  <Version>  (64) 


$$$$
94|664022_40|Aromatic_carboxylic_acids_F|sdf|24|dock1|1
     RDKit          3D

 12 12  0  0  0  0  0  0  0  0999 V2000
   -8.2596  -17.1212   11.4595 C   0  0  0  0  0  0  0  0  0  0  0  0
   -7.6366  -15.8367   11.6688 N   0  0  0  0  0  0  0  0  0  0  0  0
   -8.3409  -14.6553   11.5719 C   0  0  0  0  0  0  0  0  0  0  0  0
   -9.5296  -14.5547   11.2978 O   0  0  0  0  0  0  0  0  0  0  0  0
   -7.5420  -13.4431   11.8503 C   0  0  0  0  0  0  0  0  0  0  0  0
   -8.1627  -12.1983   11.6738 C   0  0  0  0  0  0  0  0  0  0  0  0
   -7.4390  -11.0301   11.9055 C   0  0  0  0  0  0  0  0  0  0  0  0
   -6.1069  -11.0910   12.3103 C   0  0  0  0  0  0  0  0  0  0  0  0
   -5.4897  -12.3324   12.4853 C   0  0  0  0  0  0  0  0  0  0  0  0
   -6.2035  -13.5136   12.2549 C   0  0  0  0  0  0  0  0  0  0  0  0
   -5.3062  -15.1564   12.5638 Br  0  0  0  0  0  0  0  0  0  0  0  0
   -8.1960   -9.5005   11.6887 Cl  0  0  0  0  0  0  0  0  0  0  0  0
  1  2  1  0
  2  3  1  0
  3  4  2  0
  3  5  1  0
  5  6  2  0
  5 10  1  0
  6  7  1  0
  7  8  2  0
  7 12  1  0
  8  9  1  0
  9 10  2  0
 10 11  1  0
M  END
>  <Gold.Gold.Protein.RotatedWaterAtoms>  (65) 


>  <Gold.Id.Protein>  (65) 


>  <Gold.PLP.Chemscore.CHOScore>  (65) 
0.0000

>  <Gold.PLP.Chemscore.Hbond>  (65) 
0.4160

>  <Gold.PLP.Chemscore.Internal.Correction>  (65) 
0.0004

>  <Gold.PLP.Chemscore.Metal>  (65) 
0.0000

>  <Gold.PLP.Fitness>  (65) 
48.9046

>  <Gold.PLP.PLP>  (65) 
-47.6744

>  <Gold.PLP.ligand.clash>  (65) 
0.0000

>  <Gold.PLP.ligand.torsion>  (65) 
0.0091

>  <Gold.PLP.part.buried>  (65) 
-7.3578

>  <Gold.PLP.part.hbond>  (65) 
-0.5127

>  <Gold.PLP.part.metal>  (65) 
0.0000

>  <Gold.PLP.part.nonpolar>  (65) 
-40.3098

>  <Gold.PLP.part.repulsive>  (65) 
0.1684

>  <Gold.Protein.RotatedAtoms>  (65) 


>  <Gold.Protein.RotatedTorsions>  (65) 


>  <Gold.Protein.RotatedWaterAtoms>  (65) 


>  <Gold.Version>  (65) 
5.3.0

>  <PLP.Chemscore.CHOScore>  (65) 


>  <PLP.Chemscore.Hbond>  (65) 


>  <PLP.Chemscore.Internal.Correction>  (65) 


>  <PLP.Chemscore.Metal>  (65) 


>  <PLP.Fitness>  (65) 


>  <PLP.PLP>  (65) 


>  <PLP.ligand.clash>  (65) 


>  <PLP.ligand.torsion>  (65) 


>  <PLP.part.buried>  (65) 


>  <PLP.part.hbond>  (65) 


>  <PLP.part.metal>  (65) 


>  <PLP.part.nonpolar>  (65) 


>  <PLP.part.repulsive>  (65) 


>  <RMSD>  (65) 
0.30972197429

>  <Torsion>  (65) 
172.929186758

>  <TorsionO>  (65) 
24.4968065243

>  <TorsionR>  (65) 
162.574006718

>  <Version>  (65) 


>  <product>  (65) 
16|Compound_8|Compounds_3D_F|sdf|4|dock6|1

>  <rmsd>  (65) 
-1

$$$$
110|565385_49|Aromatic_carboxylic_acids_F|sdf|29|dock1|1
     RDKit          3D

 13 13  0  0  0  0  0  0  0  0999 V2000
  -10.1118  -17.9021   11.6320 C   0  0  0  0  0  0  0  0  0  0  0  0
   -9.7537  -16.5043   11.6546 N   0  0  0  0  0  0  0  0  0  0  0  0
   -8.4330  -16.1187   11.7930 C   0  0  0  0  0  0  0  0  0  0  0  0
   -7.5159  -16.9298   11.9008 O   0  0  0  0  0  0  0  0  0  0  0  0
   -8.1234  -14.6552   11.8105 C   0  0  0  0  0  0  0  0  0  0  0  0
   -9.0636  -13.6551   11.5375 C   0  0  0  0  0  0  0  0  0  0  0  0
   -8.6966  -12.3009   11.5726 C   0  0  0  0  0  0  0  0  0  0  0  0
   -7.3879  -11.9195   11.8809 C   0  0  0  0  0  0  0  0  0  0  0  0
   -6.4486  -12.9235   12.1551 C   0  0  0  0  0  0  0  0  0  0  0  0
   -6.8098  -14.2750   12.1207 C   0  0  0  0  0  0  0  0  0  0  0  0
   -4.6444  -12.5025   12.5849 Br  0  0  0  0  0  0  0  0  0  0  0  0
   -6.9476  -10.6242   11.9372 O   0  0  0  0  0  0  0  0  0  0  0  0
   -7.9020   -9.5910   11.7256 C   0  0  0  0  0  0  0  0  0  0  0  0
  1  2  1  0
  2  3  1  0
  3  4  2  0
  3  5  1  0
  5  6  2  0
  5 10  1  0
  6  7  1  0
  7  8  2  0
  8  9  1  0
  8 12  1  0
  9 10  2  0
  9 11  1  0
 12 13  1  0
M  END
>  <Gold.Gold.Protein.RotatedWaterAtoms>  (66) 


>  <Gold.Id.Protein>  (66) 


>  <Gold.PLP.Chemscore.CHOScore>  (66) 
0.0000

>  <Gold.PLP.Chemscore.Hbond>  (66) 
1.0000

>  <Gold.PLP.Chemscore.Internal.Correction>  (66) 
0.0000

>  <Gold.PLP.Chemscore.Metal>  (66) 
0.0000

>  <Gold.PLP.Fitness>  (66) 
43.9775

>  <Gold.PLP.PLP>  (66) 
-41.0517

>  <Gold.PLP.ligand.clash>  (66) 
0.0000

>  <Gold.PLP.ligand.torsion>  (66) 
0.0371

>  <Gold.PLP.part.buried>  (66) 
-3.7367

>  <Gold.PLP.part.hbond>  (66) 
-1.0000

>  <Gold.PLP.part.metal>  (66) 
0.0000

>  <Gold.PLP.part.nonpolar>  (66) 
-36.7483

>  <Gold.PLP.part.repulsive>  (66) 
0.4054

>  <Gold.Protein.RotatedAtoms>  (66) 


>  <Gold.Protein.RotatedTorsions>  (66) 


>  <Gold.Protein.RotatedWaterAtoms>  (66) 


>  <Gold.Version>  (66) 
5.3.0

>  <PLP.Chemscore.CHOScore>  (66) 


>  <PLP.Chemscore.Hbond>  (66) 


>  <PLP.Chemscore.Internal.Correction>  (66) 


>  <PLP.Chemscore.Metal>  (66) 


>  <PLP.Fitness>  (66) 


>  <PLP.PLP>  (66) 


>  <PLP.ligand.clash>  (66) 


>  <PLP.ligand.torsion>  (66) 


>  <PLP.part.buried>  (66) 


>  <PLP.part.hbond>  (66) 


>  <PLP.part.metal>  (66) 


>  <PLP.part.nonpolar>  (66) 


>  <PLP.part.repulsive>  (66) 


>  <RMSD>  (66) 
0.319376411377

>  <Torsion>  (66) 
169.460450784

>  <TorsionO>  (66) 
9.7963905484

>  <TorsionR>  (66) 
179.256841332

>  <Version>  (66) 


>  <product>  (66) 
16|Compound_8|Compounds_3D_F|sdf|4|dock6|1

>  <rmsd>  (66) 
-1

$$$$
128|137677_56|Aromatic_carboxylic_acids_F|sdf|33|dock1|1
     RDKit          3D

 11 11  0  0  0  0  0  0  0  0999 V2000
   -8.6116  -16.1544   11.8887 C   0  0  0  0  0  0  0  0  0  0  0  0
   -7.9978  -14.8484   11.9215 N   0  0  0  0  0  0  0  0  0  0  0  0
   -8.7778  -13.7008   11.8756 C   0  0  0  0  0  0  0  0  0  0  0  0
  -10.0002  -13.7896   11.8139 O   0  0  0  0  0  0  0  0  0  0  0  0
   -8.0808  -12.3609   11.9017 C   0  0  0  0  0  0  0  0  0  0  0  0
   -8.7916  -11.1851   11.5813 C   0  0  0  0  0  0  0  0  0  0  0  0
   -8.1781   -9.9267   11.5989 C   0  0  0  0  0  0  0  0  0  0  0  0
   -6.8391   -9.8089   11.9369 C   0  0  0  0  0  0  0  0  0  0  0  0
   -6.1124  -10.9502   12.2575 C   0  0  0  0  0  0  0  0  0  0  0  0
   -6.7171  -12.2196   12.2428 C   0  0  0  0  0  0  0  0  0  0  0  0
   -5.5419  -13.6455   12.7121 Br  0  0  0  0  0  0  0  0  0  0  0  0
  1  2  1  0
  2  3  1  0
  3  4  2  0
  3  5  1  0
  5  6  2  0
  5 10  1  0
  6  7  1  0
  7  8  2  0
  8  9  1  0
  9 10  2  0
 10 11  1  0
M  END
>  <Gold.Gold.Protein.RotatedWaterAtoms>  (67) 


>  <Gold.Id.Protein>  (67) 


>  <Gold.PLP.Chemscore.CHOScore>  (67) 
0.0000

>  <Gold.PLP.Chemscore.Hbond>  (67) 
1.0000

>  <Gold.PLP.Chemscore.Internal.Correction>  (67) 
0.0000

>  <Gold.PLP.Chemscore.Metal>  (67) 
0.0000

>  <Gold.PLP.Fitness>  (67) 
45.2899

>  <Gold.PLP.PLP>  (67) 
-42.4444

>  <Gold.PLP.ligand.clash>  (67) 
0.0000

>  <Gold.PLP.ligand.torsion>  (67) 
0.0772

>  <Gold.PLP.part.buried>  (67) 
-6.4690

>  <Gold.PLP.part.hbond>  (67) 
-0.6863

>  <Gold.PLP.part.metal>  (67) 
0.0000

>  <Gold.PLP.part.nonpolar>  (67) 
-34.8280

>  <Gold.PLP.part.repulsive>  (67) 
0.1963

>  <Gold.Protein.RotatedAtoms>  (67) 


>  <Gold.Protein.RotatedTorsions>  (67) 


>  <Gold.Protein.RotatedWaterAtoms>  (67) 


>  <Gold.Version>  (67) 
5.3.0

>  <PLP.Chemscore.CHOScore>  (67) 


>  <PLP.Chemscore.Hbond>  (67) 


>  <PLP.Chemscore.Internal.Correction>  (67) 


>  <PLP.Chemscore.Metal>  (67) 


>  <PLP.Fitness>  (67) 


>  <PLP.PLP>  (67) 


>  <PLP.ligand.clash>  (67) 


>  <PLP.ligand.torsion>  (67) 


>  <PLP.part.buried>  (67) 


>  <PLP.part.hbond>  (67) 


>  <PLP.part.metal>  (67) 


>  <PLP.part.nonpolar>  (67) 


>  <PLP.part.repulsive>  (67) 


>  <RMSD>  (67) 
0.428070490903

>  <Torsion>  (67) 
152.444048788

>  <TorsionO>  (67) 
39.0580871276

>  <TorsionR>  (67) 
168.497864085

>  <Version>  (67) 


>  <product>  (67) 
16|Compound_8|Compounds_3D_F|sdf|4|dock6|1

>  <rmsd>  (67) 
-1

$$$$
974|750794_1404|Aromatic_primary_amines_F|sdf|194|dock3|1
     RDKit          3D

 14 14  0  0  0  0  0  0  0  0999 V2000
  -13.6355  -18.1936    9.4145 C   0  0  0  0  0  0  0  0  0  0  0  0
  -13.2544  -19.4497   10.1732 C   0  0  0  0  0  0  0  0  0  0  0  0
  -11.8731  -19.3506   10.5383 O   0  0  0  0  0  0  0  0  0  0  0  0
  -11.6148  -18.5085   11.5823 C   0  0  0  0  0  0  0  0  0  0  0  0
  -12.3947  -18.2810   12.5004 O   0  0  0  0  0  0  0  0  0  0  0  0
  -10.3031  -17.8985   11.4902 C   0  0  0  0  0  0  0  0  0  0  0  0
   -9.1673  -18.4974   10.9931 C   0  0  0  0  0  0  0  0  0  0  0  0
   -8.1448  -17.6055   11.0758 O   0  0  0  0  0  0  0  0  0  0  0  0
   -8.7110  -16.4917   11.6237 C   0  0  0  0  0  0  0  0  0  0  0  0
   -9.9933  -16.6110   11.8915 N   0  0  0  0  0  0  0  0  0  0  0  0
   -7.9611  -15.3718   11.8549 N   0  0  0  0  0  0  0  0  0  0  0  0
   -8.5046  -14.1249   12.0676 C   0  0  0  0  0  0  0  0  0  0  0  0
   -9.6950  -13.8313   12.1035 O   0  0  0  0  0  0  0  0  0  0  0  0
   -7.4448  -13.0785   12.3021 C   0  0  0  0  0  0  0  0  0  0  0  0
  1  2  1  0
  2  3  1  0
  3  4  1  0
  4  5  2  0
  4  6  1  0
  6  7  2  0
  6 10  1  0
  7  8  1  0
  8  9  1  0
  9 10  2  0
  9 11  1  0
 11 12  1  0
 12 13  2  0
 12 14  1  0
M  END
>  <Gold.Gold.Protein.RotatedWaterAtoms>  (68) 


>  <Gold.Id.Protein>  (68) 


>  <Gold.PLP.Chemscore.CHOScore>  (68) 
0.0000

>  <Gold.PLP.Chemscore.Hbond>  (68) 
2.0000

>  <Gold.PLP.Chemscore.Internal.Correction>  (68) 
0.0053

>  <Gold.PLP.Chemscore.Metal>  (68) 
0.0000

>  <Gold.PLP.Fitness>  (68) 
36.8047

>  <Gold.PLP.PLP>  (68) 
-32.7996

>  <Gold.PLP.ligand.clash>  (68) 
0.0000

>  <Gold.PLP.ligand.torsion>  (68) 
1.0001

>  <Gold.PLP.part.buried>  (68) 
-6.5206

>  <Gold.PLP.part.hbond>  (68) 
-2.9156

>  <Gold.PLP.part.metal>  (68) 
0.0000

>  <Gold.PLP.part.nonpolar>  (68) 
-23.4080

>  <Gold.PLP.part.repulsive>  (68) 
0.3100

>  <Gold.Protein.RotatedAtoms>  (68) 


>  <Gold.Protein.RotatedTorsions>  (68) 


>  <Gold.Protein.RotatedWaterAtoms>  (68) 


>  <Gold.Version>  (68) 
5.3.0

>  <PLP.Chemscore.CHOScore>  (68) 


>  <PLP.Chemscore.Hbond>  (68) 


>  <PLP.Chemscore.Internal.Correction>  (68) 


>  <PLP.Chemscore.Metal>  (68) 


>  <PLP.Fitness>  (68) 


>  <PLP.PLP>  (68) 


>  <PLP.ligand.clash>  (68) 


>  <PLP.ligand.torsion>  (68) 


>  <PLP.part.buried>  (68) 


>  <PLP.part.hbond>  (68) 


>  <PLP.part.metal>  (68) 


>  <PLP.part.nonpolar>  (68) 


>  <PLP.part.repulsive>  (68) 


>  <RMSD>  (68) 
0.499949349045

>  <Torsion>  (68) 
159.973716791

>  <TorsionO>  (68) 
19.1052109979

>  <TorsionR>  (68) 
179.078927789

>  <Version>  (68) 


>  <product>  (68) 
16|Compound_8|Compounds_3D_F|sdf|4|dock6|1

>  <rmsd>  (68) 
-1

$$$$
1884|M3006_1781|Aromatic_primary_amines_F|sdf|361|dock3|1
     RDKit          3D

 31 34  0  0  0  0  0  0  0  0999 V2000
  -14.4210  -19.8971    8.7934 C   0  0  0  0  0  0  0  0  0  0  0  0
  -13.9762  -19.4927   10.1894 C   0  0  0  0  0  0  0  0  0  0  0  0
  -14.1356  -20.6409   11.1817 C   0  0  0  0  0  0  0  0  0  0  0  0
  -13.5197  -20.3070   12.5189 C   0  0  0  0  0  0  0  0  0  0  0  0
  -12.9307  -19.2724   12.7954 O   0  0  0  0  0  0  0  0  0  0  0  0
  -13.7110  -21.3451   13.3845 O   0  0  0  0  0  0  0  0  0  0  0  0
  -12.9425  -21.2698   14.5900 C   0  0  0  0  0  0  0  0  0  0  0  0
  -12.8849  -22.6189   15.2889 C   0  0  0  0  0  0  0  0  0  0  0  0
  -11.6552  -22.4172   16.1494 C   0  0  0  0  0  0  0  0  0  0  0  0
  -11.2420  -23.7410   16.7624 C   0  0  0  0  0  0  0  0  0  0  0  0
  -12.3024  -24.2223   17.5862 O   0  0  0  0  0  0  0  0  0  0  0  0
  -13.7888  -24.3384   16.9603 P   0  0  0  0  0  0  0  0  0  0  0  0
  -14.8775  -24.6795   17.9243 O   0  0  0  0  0  0  0  0  0  0  0  0
  -13.9839  -22.9641   16.1174 O   0  0  0  0  0  0  0  0  0  0  0  0
  -13.5991  -25.4435   15.8075 O   0  0  0  0  0  0  0  0  0  0  0  0
  -10.6922  -21.8161   15.2889 O   0  0  0  0  0  0  0  0  0  0  0  0
  -11.4338  -20.9664   14.3653 C   0  0  0  0  0  0  0  0  0  0  0  0
  -10.9052  -21.2017   13.0342 N   0  0  0  0  0  0  0  0  0  0  0  0
  -10.7814  -22.4114   12.4013 C   0  0  0  0  0  0  0  0  0  0  0  0
  -10.2640  -22.2918   11.1953 N   0  0  0  0  0  0  0  0  0  0  0  0
  -10.0274  -20.9476   11.0424 C   0  0  0  0  0  0  0  0  0  0  0  0
  -10.4203  -20.2487   12.1733 C   0  0  0  0  0  0  0  0  0  0  0  0
  -10.3338  -18.9216   12.3641 N   0  0  0  0  0  0  0  0  0  0  0  0
   -9.8057  -18.2730   11.3024 C   0  0  0  0  0  0  0  0  0  0  0  0
   -9.3808  -18.8370   10.1545 N   0  0  0  0  0  0  0  0  0  0  0  0
   -9.4895  -20.1691   10.0244 C   0  0  0  0  0  0  0  0  0  0  0  0
   -9.0330  -20.6622    8.8349 O   0  0  0  0  0  0  0  0  0  0  0  0
   -9.7222  -16.8901   11.4793 N   0  0  0  0  0  0  0  0  0  0  0  0
   -8.5796  -16.1798   11.7761 C   0  0  0  0  0  0  0  0  0  0  0  0
   -7.4445  -16.6221   11.9131 O   0  0  0  0  0  0  0  0  0  0  0  0
   -8.8524  -14.7024   11.8973 C   0  0  0  0  0  0  0  0  0  0  0  0
  1  2  1  0
  2  3  1  0
  3  4  1  0
  4  5  2  0
  4  6  1  0
  6  7  1  0
  7  8  1  0
  7 17  1  0
  8  9  1  0
  8 14  1  0
  9 10  1  0
  9 16  1  0
 10 11  1  0
 11 12  1  0
 12 13  2  0
 12 14  1  0
 12 15  1  0
 16 17  1  0
 17 18  1  0
 18 19  1  0
 18 22  1  0
 19 20  2  0
 20 21  1  0
 21 22  2  0
 21 26  1  0
 22 23  1  0
 23 24  2  0
 24 25  1  0
 24 28  1  0
 25 26  2  0
 26 27  1  0
 28 29  1  0
 29 30  2  0
 29 31  1  0
M  END
>  <Gold.Gold.Protein.RotatedWaterAtoms>  (69) 


>  <Gold.Id.Protein>  (69) 


>  <Gold.PLP.Chemscore.CHOScore>  (69) 
0.0000

>  <Gold.PLP.Chemscore.Hbond>  (69) 
1.2080

>  <Gold.PLP.Chemscore.Internal.Correction>  (69) 
0.1232

>  <Gold.PLP.Chemscore.Metal>  (69) 
0.0000

>  <Gold.PLP.Fitness>  (69) 
47.7145

>  <Gold.PLP.PLP>  (69) 
-46.0218

>  <Gold.PLP.ligand.clash>  (69) 
0.0000

>  <Gold.PLP.ligand.torsion>  (69) 
1.0272

>  <Gold.PLP.part.buried>  (69) 
-2.2958

>  <Gold.PLP.part.hbond>  (69) 
-4.0214

>  <Gold.PLP.part.metal>  (69) 
0.0000

>  <Gold.PLP.part.nonpolar>  (69) 
-41.4699

>  <Gold.PLP.part.repulsive>  (69) 
0.9524

>  <Gold.Protein.RotatedAtoms>  (69) 


>  <Gold.Protein.RotatedTorsions>  (69) 


>  <Gold.Protein.RotatedWaterAtoms>  (69) 


>  <Gold.Version>  (69) 
5.3.0

>  <PLP.Chemscore.CHOScore>  (69) 


>  <PLP.Chemscore.Hbond>  (69) 


>  <PLP.Chemscore.Internal.Correction>  (69) 


>  <PLP.Chemscore.Metal>  (69) 


>  <PLP.Fitness>  (69) 


>  <PLP.PLP>  (69) 


>  <PLP.ligand.clash>  (69) 


>  <PLP.ligand.torsion>  (69) 


>  <PLP.part.buried>  (69) 


>  <PLP.part.hbond>  (69) 


>  <PLP.part.metal>  (69) 


>  <PLP.part.nonpolar>  (69) 


>  <PLP.part.repulsive>  (69) 


>  <RMSD>  (69) 
0.291955871297

>  <Torsion>  (69) 
171.923704933

>  <TorsionO>  (69) 
6.03609353985

>  <TorsionR>  (69) 
177.959798473

>  <Version>  (69) 


>  <product>  (69) 
16|Compound_8|Compounds_3D_F|sdf|4|dock6|1

>  <rmsd>  (69) 
-1

$$$$
193|32168_281|Aromatic_primary_amines_F|sdf|39|dock6|1
     RDKit          3D

 23 25  0  0  0  0  0  0  0  0999 V2000
   -7.8439  -12.1461   11.8919 C   0  0  0  0  0  0  0  0  0  0  0  0
   -8.5691  -13.4472   11.6781 C   0  0  0  0  0  0  0  0  0  0  0  0
   -9.7886  -13.4981   11.5208 O   0  0  0  0  0  0  0  0  0  0  0  0
   -7.7264  -14.5390   11.7020 N   0  0  0  0  0  0  0  0  0  0  0  0
   -8.1889  -15.8197   11.5323 C   0  0  0  0  0  0  0  0  0  0  0  0
   -9.4747  -16.2039   11.8163 N   0  0  0  0  0  0  0  0  0  0  0  0
   -9.5964  -17.5375   11.5379 C   0  0  0  0  0  0  0  0  0  0  0  0
  -10.6643  -18.4283   11.6415 C   0  0  0  0  0  0  0  0  0  0  0  0
  -10.4051  -19.7586   11.2778 C   0  0  0  0  0  0  0  0  0  0  0  0
   -9.1530  -20.1507   10.7795 C   0  0  0  0  0  0  0  0  0  0  0  0
   -8.1017  -19.2294   10.6839 C   0  0  0  0  0  0  0  0  0  0  0  0
   -8.3349  -17.9032   11.0783 C   0  0  0  0  0  0  0  0  0  0  0  0
   -7.4773  -16.8281   11.0838 N   0  0  0  0  0  0  0  0  0  0  0  0
   -8.8530  -21.7658   10.2429 Cl  0  0  0  0  0  0  0  0  0  0  0  0
  -11.4669  -20.6323   11.3734 O   0  0  0  0  0  0  0  0  0  0  0  0
  -12.5262  -20.4408   10.5053 C   0  0  0  0  0  0  0  0  0  0  0  0
  -13.3188  -19.2846   10.5304 C   0  0  0  0  0  0  0  0  0  0  0  0
  -14.3665  -19.1344    9.6224 C   0  0  0  0  0  0  0  0  0  0  0  0
  -14.6219  -20.1279    8.6796 C   0  0  0  0  0  0  0  0  0  0  0  0
  -13.8238  -21.2756    8.6345 C   0  0  0  0  0  0  0  0  0  0  0  0
  -12.7674  -21.4342    9.5416 C   0  0  0  0  0  0  0  0  0  0  0  0
  -11.7588  -22.8458    9.4996 Cl  0  0  0  0  0  0  0  0  0  0  0  0
  -14.1988  -22.4584    7.4296 Cl  0  0  0  0  0  0  0  0  0  0  0  0
  1  2  1  0
  2  3  2  0
  2  4  1  0
  4  5  1  0
  5  6  1  0
  5 13  2  0
  6  7  1  0
  7  8  2  0
  7 12  1  0
  8  9  1  0
  9 10  2  0
  9 15  1  0
 10 11  1  0
 10 14  1  0
 11 12  2  0
 12 13  1  0
 15 16  1  0
 16 17  2  0
 16 21  1  0
 17 18  1  0
 18 19  2  0
 19 20  1  0
 20 21  2  0
 20 23  1  0
 21 22  1  0
M  END
>  <Gold.Gold.Protein.RotatedWaterAtoms>  (70) 


>  <Gold.Id.Protein>  (70) 


>  <Gold.PLP.Chemscore.CHOScore>  (70) 
0.0000

>  <Gold.PLP.Chemscore.Hbond>  (70) 
1.0000

>  <Gold.PLP.Chemscore.Internal.Correction>  (70) 
0.0086

>  <Gold.PLP.Chemscore.Metal>  (70) 
0.0000

>  <Gold.PLP.Fitness>  (70) 
50.7139

>  <Gold.PLP.PLP>  (70) 
-48.1706

>  <Gold.PLP.ligand.clash>  (70) 
0.0000

>  <Gold.PLP.ligand.torsion>  (70) 
0.2327

>  <Gold.PLP.part.buried>  (70) 
-6.5205

>  <Gold.PLP.part.hbond>  (70) 
-2.0000

>  <Gold.PLP.part.metal>  (70) 
0.0000

>  <Gold.PLP.part.nonpolar>  (70) 
-39.3857

>  <Gold.PLP.part.repulsive>  (70) 
0.3298

>  <Gold.Protein.RotatedAtoms>  (70) 


>  <Gold.Protein.RotatedTorsions>  (70) 


>  <Gold.Protein.RotatedWaterAtoms>  (70) 


>  <Gold.Version>  (70) 
5.3.0

>  <PLP.Chemscore.CHOScore>  (70) 


>  <PLP.Chemscore.Hbond>  (70) 


>  <PLP.Chemscore.Internal.Correction>  (70) 


>  <PLP.Chemscore.Metal>  (70) 


>  <PLP.Fitness>  (70) 


>  <PLP.PLP>  (70) 


>  <PLP.ligand.clash>  (70) 


>  <PLP.ligand.torsion>  (70) 


>  <PLP.part.buried>  (70) 


>  <PLP.part.hbond>  (70) 


>  <PLP.part.metal>  (70) 


>  <PLP.part.nonpolar>  (70) 


>  <PLP.part.repulsive>  (70) 


>  <RMSD>  (70) 
0.439733510035

>  <Torsion>  (70) 
177.672185574

>  <TorsionO>  (70) 
4.31728583372

>  <TorsionR>  (70) 
173.35489974

>  <Version>  (70) 


>  <product>  (70) 
16|Compound_8|Compounds_3D_F|sdf|4|dock6|1

>  <rmsd>  (70) 
-1

$$$$
19|Compound_8|Compounds_3D_F|sdf|4|dock9|1
     RDKit          3D

  8  7  0  0  0  0  0  0  0  0999 V2000
   -9.9821  -14.3558   12.6606 O   0  0  0  0  0  0  0  0  0  0  0  0
   -9.1033  -13.3275   12.2009 C   0  0  0  0  0  0  0  0  0  0  0  0
   -7.6818  -13.8817   12.0923 C   0  0  0  0  0  0  0  0  0  0  0  0
   -7.4275  -14.3054   10.7127 N   0  0  0  0  0  0  0  0  0  0  0  0
   -8.2034  -15.2494   10.1432 C   0  0  0  0  0  0  0  0  0  0  0  0
   -9.1120  -15.7466   10.7732 O   0  0  0  0  0  0  0  0  0  0  0  0
   -7.9303  -15.7033    8.6660 B   0  0  0  0  0  0  0  0  0  0  0  0
   -6.6790  -12.7949   12.4852 C   0  0  0  0  0  0  0  0  0  0  0  0
  1  2  1  0
  2  3  1  0
  3  4  1  0
  3  8  1  0
  4  5  1  0
  5  6  2  0
  5  7  1  0
M  END
>  <Gold.Gold.Protein.RotatedWaterAtoms>  (71) 


>  <Gold.Id.Protein>  (71) 


>  <Gold.PLP.Chemscore.CHOScore>  (71) 
0.0000

>  <Gold.PLP.Chemscore.Hbond>  (71) 
2.0000

>  <Gold.PLP.Chemscore.Internal.Correction>  (71) 
0.0000

>  <Gold.PLP.Chemscore.Metal>  (71) 
0.0000

>  <Gold.PLP.Fitness>  (71) 
29.1886

>  <Gold.PLP.PLP>  (71) 
-24.1670

>  <Gold.PLP.ligand.clash>  (71) 
0.0000

>  <Gold.PLP.ligand.torsion>  (71) 
0.4892

>  <Gold.PLP.part.buried>  (71) 
-5.4388

>  <Gold.PLP.part.hbond>  (71) 
-3.7824

>  <Gold.PLP.part.metal>  (71) 
0.0000

>  <Gold.PLP.part.nonpolar>  (71) 
-15.3884

>  <Gold.PLP.part.repulsive>  (71) 
0.2057

>  <Gold.Protein.RotatedAtoms>  (71) 


>  <Gold.Protein.RotatedTorsions>  (71) 


>  <Gold.Protein.RotatedWaterAtoms>  (71) 


>  <Gold.Version>  (71) 
5.3.0

>  <PLP.Chemscore.CHOScore>  (71) 


>  <PLP.Chemscore.Hbond>  (71) 


>  <PLP.Chemscore.Internal.Correction>  (71) 


>  <PLP.Chemscore.Metal>  (71) 


>  <PLP.Fitness>  (71) 


>  <PLP.PLP>  (71) 


>  <PLP.ligand.clash>  (71) 


>  <PLP.ligand.torsion>  (71) 


>  <PLP.part.buried>  (71) 


>  <PLP.part.hbond>  (71) 


>  <PLP.part.metal>  (71) 


>  <PLP.part.nonpolar>  (71) 


>  <PLP.part.repulsive>  (71) 


>  <Version>  (71) 


$$$$
94|664022_40|Aromatic_carboxylic_acids_F|sdf|24|dock1|1
     RDKit          3D

 12 12  0  0  0  0  0  0  0  0999 V2000
   -8.2596  -17.1212   11.4595 C   0  0  0  0  0  0  0  0  0  0  0  0
   -7.6366  -15.8367   11.6688 N   0  0  0  0  0  0  0  0  0  0  0  0
   -8.3409  -14.6553   11.5719 C   0  0  0  0  0  0  0  0  0  0  0  0
   -9.5296  -14.5547   11.2978 O   0  0  0  0  0  0  0  0  0  0  0  0
   -7.5420  -13.4431   11.8503 C   0  0  0  0  0  0  0  0  0  0  0  0
   -8.1627  -12.1983   11.6738 C   0  0  0  0  0  0  0  0  0  0  0  0
   -7.4390  -11.0301   11.9055 C   0  0  0  0  0  0  0  0  0  0  0  0
   -6.1069  -11.0910   12.3103 C   0  0  0  0  0  0  0  0  0  0  0  0
   -5.4897  -12.3324   12.4853 C   0  0  0  0  0  0  0  0  0  0  0  0
   -6.2035  -13.5136   12.2549 C   0  0  0  0  0  0  0  0  0  0  0  0
   -5.3062  -15.1564   12.5638 Br  0  0  0  0  0  0  0  0  0  0  0  0
   -8.1960   -9.5005   11.6887 Cl  0  0  0  0  0  0  0  0  0  0  0  0
  1  2  1  0
  2  3  1  0
  3  4  2  0
  3  5  1  0
  5  6  2  0
  5 10  1  0
  6  7  1  0
  7  8  2  0
  7 12  1  0
  8  9  1  0
  9 10  2  0
 10 11  1  0
M  END
>  <Gold.Gold.Protein.RotatedWaterAtoms>  (72) 


>  <Gold.Id.Protein>  (72) 


>  <Gold.PLP.Chemscore.CHOScore>  (72) 
0.0000

>  <Gold.PLP.Chemscore.Hbond>  (72) 
0.4160

>  <Gold.PLP.Chemscore.Internal.Correction>  (72) 
0.0004

>  <Gold.PLP.Chemscore.Metal>  (72) 
0.0000

>  <Gold.PLP.Fitness>  (72) 
48.9046

>  <Gold.PLP.PLP>  (72) 
-47.6744

>  <Gold.PLP.ligand.clash>  (72) 
0.0000

>  <Gold.PLP.ligand.torsion>  (72) 
0.0091

>  <Gold.PLP.part.buried>  (72) 
-7.3578

>  <Gold.PLP.part.hbond>  (72) 
-0.5127

>  <Gold.PLP.part.metal>  (72) 
0.0000

>  <Gold.PLP.part.nonpolar>  (72) 
-40.3098

>  <Gold.PLP.part.repulsive>  (72) 
0.1684

>  <Gold.Protein.RotatedAtoms>  (72) 


>  <Gold.Protein.RotatedTorsions>  (72) 


>  <Gold.Protein.RotatedWaterAtoms>  (72) 


>  <Gold.Version>  (72) 
5.3.0

>  <PLP.Chemscore.CHOScore>  (72) 


>  <PLP.Chemscore.Hbond>  (72) 


>  <PLP.Chemscore.Internal.Correction>  (72) 


>  <PLP.Chemscore.Metal>  (72) 


>  <PLP.Fitness>  (72) 


>  <PLP.PLP>  (72) 


>  <PLP.ligand.clash>  (72) 


>  <PLP.ligand.torsion>  (72) 


>  <PLP.part.buried>  (72) 


>  <PLP.part.hbond>  (72) 


>  <PLP.part.metal>  (72) 


>  <PLP.part.nonpolar>  (72) 


>  <PLP.part.repulsive>  (72) 


>  <RMSD>  (72) 
0.30972197429

>  <Torsion>  (72) 
172.929186758

>  <TorsionO>  (72) 
24.4968065243

>  <TorsionR>  (72) 
162.574006718

>  <Version>  (72) 


>  <product>  (72) 
19|Compound_8|Compounds_3D_F|sdf|4|dock9|1

>  <rmsd>  (72) 
-1

$$$$
110|565385_49|Aromatic_carboxylic_acids_F|sdf|29|dock1|1
     RDKit          3D

 13 13  0  0  0  0  0  0  0  0999 V2000
  -10.1118  -17.9021   11.6320 C   0  0  0  0  0  0  0  0  0  0  0  0
   -9.7537  -16.5043   11.6546 N   0  0  0  0  0  0  0  0  0  0  0  0
   -8.4330  -16.1187   11.7930 C   0  0  0  0  0  0  0  0  0  0  0  0
   -7.5159  -16.9298   11.9008 O   0  0  0  0  0  0  0  0  0  0  0  0
   -8.1234  -14.6552   11.8105 C   0  0  0  0  0  0  0  0  0  0  0  0
   -9.0636  -13.6551   11.5375 C   0  0  0  0  0  0  0  0  0  0  0  0
   -8.6966  -12.3009   11.5726 C   0  0  0  0  0  0  0  0  0  0  0  0
   -7.3879  -11.9195   11.8809 C   0  0  0  0  0  0  0  0  0  0  0  0
   -6.4486  -12.9235   12.1551 C   0  0  0  0  0  0  0  0  0  0  0  0
   -6.8098  -14.2750   12.1207 C   0  0  0  0  0  0  0  0  0  0  0  0
   -4.6444  -12.5025   12.5849 Br  0  0  0  0  0  0  0  0  0  0  0  0
   -6.9476  -10.6242   11.9372 O   0  0  0  0  0  0  0  0  0  0  0  0
   -7.9020   -9.5910   11.7256 C   0  0  0  0  0  0  0  0  0  0  0  0
  1  2  1  0
  2  3  1  0
  3  4  2  0
  3  5  1  0
  5  6  2  0
  5 10  1  0
  6  7  1  0
  7  8  2  0
  8  9  1  0
  8 12  1  0
  9 10  2  0
  9 11  1  0
 12 13  1  0
M  END
>  <Gold.Gold.Protein.RotatedWaterAtoms>  (73) 


>  <Gold.Id.Protein>  (73) 


>  <Gold.PLP.Chemscore.CHOScore>  (73) 
0.0000

>  <Gold.PLP.Chemscore.Hbond>  (73) 
1.0000

>  <Gold.PLP.Chemscore.Internal.Correction>  (73) 
0.0000

>  <Gold.PLP.Chemscore.Metal>  (73) 
0.0000

>  <Gold.PLP.Fitness>  (73) 
43.9775

>  <Gold.PLP.PLP>  (73) 
-41.0517

>  <Gold.PLP.ligand.clash>  (73) 
0.0000

>  <Gold.PLP.ligand.torsion>  (73) 
0.0371

>  <Gold.PLP.part.buried>  (73) 
-3.7367

>  <Gold.PLP.part.hbond>  (73) 
-1.0000

>  <Gold.PLP.part.metal>  (73) 
0.0000

>  <Gold.PLP.part.nonpolar>  (73) 
-36.7483

>  <Gold.PLP.part.repulsive>  (73) 
0.4054

>  <Gold.Protein.RotatedAtoms>  (73) 


>  <Gold.Protein.RotatedTorsions>  (73) 


>  <Gold.Protein.RotatedWaterAtoms>  (73) 


>  <Gold.Version>  (73) 
5.3.0

>  <PLP.Chemscore.CHOScore>  (73) 


>  <PLP.Chemscore.Hbond>  (73) 


>  <PLP.Chemscore.Internal.Correction>  (73) 


>  <PLP.Chemscore.Metal>  (73) 


>  <PLP.Fitness>  (73) 


>  <PLP.PLP>  (73) 


>  <PLP.ligand.clash>  (73) 


>  <PLP.ligand.torsion>  (73) 


>  <PLP.part.buried>  (73) 


>  <PLP.part.hbond>  (73) 


>  <PLP.part.metal>  (73) 


>  <PLP.part.nonpolar>  (73) 


>  <PLP.part.repulsive>  (73) 


>  <RMSD>  (73) 
0.319376411377

>  <Torsion>  (73) 
169.460450784

>  <TorsionO>  (73) 
9.7963905484

>  <TorsionR>  (73) 
179.256841332

>  <Version>  (73) 


>  <product>  (73) 
19|Compound_8|Compounds_3D_F|sdf|4|dock9|1

>  <rmsd>  (73) 
-1

$$$$
128|137677_56|Aromatic_carboxylic_acids_F|sdf|33|dock1|1
     RDKit          3D

 11 11  0  0  0  0  0  0  0  0999 V2000
   -8.6116  -16.1544   11.8887 C   0  0  0  0  0  0  0  0  0  0  0  0
   -7.9978  -14.8484   11.9215 N   0  0  0  0  0  0  0  0  0  0  0  0
   -8.7778  -13.7008   11.8756 C   0  0  0  0  0  0  0  0  0  0  0  0
  -10.0002  -13.7896   11.8139 O   0  0  0  0  0  0  0  0  0  0  0  0
   -8.0808  -12.3609   11.9017 C   0  0  0  0  0  0  0  0  0  0  0  0
   -8.7916  -11.1851   11.5813 C   0  0  0  0  0  0  0  0  0  0  0  0
   -8.1781   -9.9267   11.5989 C   0  0  0  0  0  0  0  0  0  0  0  0
   -6.8391   -9.8089   11.9369 C   0  0  0  0  0  0  0  0  0  0  0  0
   -6.1124  -10.9502   12.2575 C   0  0  0  0  0  0  0  0  0  0  0  0
   -6.7171  -12.2196   12.2428 C   0  0  0  0  0  0  0  0  0  0  0  0
   -5.5419  -13.6455   12.7121 Br  0  0  0  0  0  0  0  0  0  0  0  0
  1  2  1  0
  2  3  1  0
  3  4  2  0
  3  5  1  0
  5  6  2  0
  5 10  1  0
  6  7  1  0
  7  8  2  0
  8  9  1  0
  9 10  2  0
 10 11  1  0
M  END
>  <Gold.Gold.Protein.RotatedWaterAtoms>  (74) 


>  <Gold.Id.Protein>  (74) 


>  <Gold.PLP.Chemscore.CHOScore>  (74) 
0.0000

>  <Gold.PLP.Chemscore.Hbond>  (74) 
1.0000

>  <Gold.PLP.Chemscore.Internal.Correction>  (74) 
0.0000

>  <Gold.PLP.Chemscore.Metal>  (74) 
0.0000

>  <Gold.PLP.Fitness>  (74) 
45.2899

>  <Gold.PLP.PLP>  (74) 
-42.4444

>  <Gold.PLP.ligand.clash>  (74) 
0.0000

>  <Gold.PLP.ligand.torsion>  (74) 
0.0772

>  <Gold.PLP.part.buried>  (74) 
-6.4690

>  <Gold.PLP.part.hbond>  (74) 
-0.6863

>  <Gold.PLP.part.metal>  (74) 
0.0000

>  <Gold.PLP.part.nonpolar>  (74) 
-34.8280

>  <Gold.PLP.part.repulsive>  (74) 
0.1963

>  <Gold.Protein.RotatedAtoms>  (74) 


>  <Gold.Protein.RotatedTorsions>  (74) 


>  <Gold.Protein.RotatedWaterAtoms>  (74) 


>  <Gold.Version>  (74) 
5.3.0

>  <PLP.Chemscore.CHOScore>  (74) 


>  <PLP.Chemscore.Hbond>  (74) 


>  <PLP.Chemscore.Internal.Correction>  (74) 


>  <PLP.Chemscore.Metal>  (74) 


>  <PLP.Fitness>  (74) 


>  <PLP.PLP>  (74) 


>  <PLP.ligand.clash>  (74) 


>  <PLP.ligand.torsion>  (74) 


>  <PLP.part.buried>  (74) 


>  <PLP.part.hbond>  (74) 


>  <PLP.part.metal>  (74) 


>  <PLP.part.nonpolar>  (74) 


>  <PLP.part.repulsive>  (74) 


>  <RMSD>  (74) 
0.428070490903

>  <Torsion>  (74) 
152.444048788

>  <TorsionO>  (74) 
39.0580871276

>  <TorsionR>  (74) 
168.497864085

>  <Version>  (74) 


>  <product>  (74) 
19|Compound_8|Compounds_3D_F|sdf|4|dock9|1

>  <rmsd>  (74) 
-1

$$$$
974|750794_1404|Aromatic_primary_amines_F|sdf|194|dock3|1
     RDKit          3D

 14 14  0  0  0  0  0  0  0  0999 V2000
  -13.6355  -18.1936    9.4145 C   0  0  0  0  0  0  0  0  0  0  0  0
  -13.2544  -19.4497   10.1732 C   0  0  0  0  0  0  0  0  0  0  0  0
  -11.8731  -19.3506   10.5383 O   0  0  0  0  0  0  0  0  0  0  0  0
  -11.6148  -18.5085   11.5823 C   0  0  0  0  0  0  0  0  0  0  0  0
  -12.3947  -18.2810   12.5004 O   0  0  0  0  0  0  0  0  0  0  0  0
  -10.3031  -17.8985   11.4902 C   0  0  0  0  0  0  0  0  0  0  0  0
   -9.1673  -18.4974   10.9931 C   0  0  0  0  0  0  0  0  0  0  0  0
   -8.1448  -17.6055   11.0758 O   0  0  0  0  0  0  0  0  0  0  0  0
   -8.7110  -16.4917   11.6237 C   0  0  0  0  0  0  0  0  0  0  0  0
   -9.9933  -16.6110   11.8915 N   0  0  0  0  0  0  0  0  0  0  0  0
   -7.9611  -15.3718   11.8549 N   0  0  0  0  0  0  0  0  0  0  0  0
   -8.5046  -14.1249   12.0676 C   0  0  0  0  0  0  0  0  0  0  0  0
   -9.6950  -13.8313   12.1035 O   0  0  0  0  0  0  0  0  0  0  0  0
   -7.4448  -13.0785   12.3021 C   0  0  0  0  0  0  0  0  0  0  0  0
  1  2  1  0
  2  3  1  0
  3  4  1  0
  4  5  2  0
  4  6  1  0
  6  7  2  0
  6 10  1  0
  7  8  1  0
  8  9  1  0
  9 10  2  0
  9 11  1  0
 11 12  1  0
 12 13  2  0
 12 14  1  0
M  END
>  <Gold.Gold.Protein.RotatedWaterAtoms>  (75) 


>  <Gold.Id.Protein>  (75) 


>  <Gold.PLP.Chemscore.CHOScore>  (75) 
0.0000

>  <Gold.PLP.Chemscore.Hbond>  (75) 
2.0000

>  <Gold.PLP.Chemscore.Internal.Correction>  (75) 
0.0053

>  <Gold.PLP.Chemscore.Metal>  (75) 
0.0000

>  <Gold.PLP.Fitness>  (75) 
36.8047

>  <Gold.PLP.PLP>  (75) 
-32.7996

>  <Gold.PLP.ligand.clash>  (75) 
0.0000

>  <Gold.PLP.ligand.torsion>  (75) 
1.0001

>  <Gold.PLP.part.buried>  (75) 
-6.5206

>  <Gold.PLP.part.hbond>  (75) 
-2.9156

>  <Gold.PLP.part.metal>  (75) 
0.0000

>  <Gold.PLP.part.nonpolar>  (75) 
-23.4080

>  <Gold.PLP.part.repulsive>  (75) 
0.3100

>  <Gold.Protein.RotatedAtoms>  (75) 


>  <Gold.Protein.RotatedTorsions>  (75) 


>  <Gold.Protein.RotatedWaterAtoms>  (75) 


>  <Gold.Version>  (75) 
5.3.0

>  <PLP.Chemscore.CHOScore>  (75) 


>  <PLP.Chemscore.Hbond>  (75) 


>  <PLP.Chemscore.Internal.Correction>  (75) 


>  <PLP.Chemscore.Metal>  (75) 


>  <PLP.Fitness>  (75) 


>  <PLP.PLP>  (75) 


>  <PLP.ligand.clash>  (75) 


>  <PLP.ligand.torsion>  (75) 


>  <PLP.part.buried>  (75) 


>  <PLP.part.hbond>  (75) 


>  <PLP.part.metal>  (75) 


>  <PLP.part.nonpolar>  (75) 


>  <PLP.part.repulsive>  (75) 


>  <RMSD>  (75) 
0.499949349045

>  <Torsion>  (75) 
159.973716791

>  <TorsionO>  (75) 
19.1052109979

>  <TorsionR>  (75) 
179.078927789

>  <Version>  (75) 


>  <product>  (75) 
19|Compound_8|Compounds_3D_F|sdf|4|dock9|1

>  <rmsd>  (75) 
-1

$$$$
1884|M3006_1781|Aromatic_primary_amines_F|sdf|361|dock3|1
     RDKit          3D

 31 34  0  0  0  0  0  0  0  0999 V2000
  -14.4210  -19.8971    8.7934 C   0  0  0  0  0  0  0  0  0  0  0  0
  -13.9762  -19.4927   10.1894 C   0  0  0  0  0  0  0  0  0  0  0  0
  -14.1356  -20.6409   11.1817 C   0  0  0  0  0  0  0  0  0  0  0  0
  -13.5197  -20.3070   12.5189 C   0  0  0  0  0  0  0  0  0  0  0  0
  -12.9307  -19.2724   12.7954 O   0  0  0  0  0  0  0  0  0  0  0  0
  -13.7110  -21.3451   13.3845 O   0  0  0  0  0  0  0  0  0  0  0  0
  -12.9425  -21.2698   14.5900 C   0  0  0  0  0  0  0  0  0  0  0  0
  -12.8849  -22.6189   15.2889 C   0  0  0  0  0  0  0  0  0  0  0  0
  -11.6552  -22.4172   16.1494 C   0  0  0  0  0  0  0  0  0  0  0  0
  -11.2420  -23.7410   16.7624 C   0  0  0  0  0  0  0  0  0  0  0  0
  -12.3024  -24.2223   17.5862 O   0  0  0  0  0  0  0  0  0  0  0  0
  -13.7888  -24.3384   16.9603 P   0  0  0  0  0  0  0  0  0  0  0  0
  -14.8775  -24.6795   17.9243 O   0  0  0  0  0  0  0  0  0  0  0  0
  -13.9839  -22.9641   16.1174 O   0  0  0  0  0  0  0  0  0  0  0  0
  -13.5991  -25.4435   15.8075 O   0  0  0  0  0  0  0  0  0  0  0  0
  -10.6922  -21.8161   15.2889 O   0  0  0  0  0  0  0  0  0  0  0  0
  -11.4338  -20.9664   14.3653 C   0  0  0  0  0  0  0  0  0  0  0  0
  -10.9052  -21.2017   13.0342 N   0  0  0  0  0  0  0  0  0  0  0  0
  -10.7814  -22.4114   12.4013 C   0  0  0  0  0  0  0  0  0  0  0  0
  -10.2640  -22.2918   11.1953 N   0  0  0  0  0  0  0  0  0  0  0  0
  -10.0274  -20.9476   11.0424 C   0  0  0  0  0  0  0  0  0  0  0  0
  -10.4203  -20.2487   12.1733 C   0  0  0  0  0  0  0  0  0  0  0  0
  -10.3338  -18.9216   12.3641 N   0  0  0  0  0  0  0  0  0  0  0  0
   -9.8057  -18.2730   11.3024 C   0  0  0  0  0  0  0  0  0  0  0  0
   -9.3808  -18.8370   10.1545 N   0  0  0  0  0  0  0  0  0  0  0  0
   -9.4895  -20.1691   10.0244 C   0  0  0  0  0  0  0  0  0  0  0  0
   -9.0330  -20.6622    8.8349 O   0  0  0  0  0  0  0  0  0  0  0  0
   -9.7222  -16.8901   11.4793 N   0  0  0  0  0  0  0  0  0  0  0  0
   -8.5796  -16.1798   11.7761 C   0  0  0  0  0  0  0  0  0  0  0  0
   -7.4445  -16.6221   11.9131 O   0  0  0  0  0  0  0  0  0  0  0  0
   -8.8524  -14.7024   11.8973 C   0  0  0  0  0  0  0  0  0  0  0  0
  1  2  1  0
  2  3  1  0
  3  4  1  0
  4  5  2  0
  4  6  1  0
  6  7  1  0
  7  8  1  0
  7 17  1  0
  8  9  1  0
  8 14  1  0
  9 10  1  0
  9 16  1  0
 10 11  1  0
 11 12  1  0
 12 13  2  0
 12 14  1  0
 12 15  1  0
 16 17  1  0
 17 18  1  0
 18 19  1  0
 18 22  1  0
 19 20  2  0
 20 21  1  0
 21 22  2  0
 21 26  1  0
 22 23  1  0
 23 24  2  0
 24 25  1  0
 24 28  1  0
 25 26  2  0
 26 27  1  0
 28 29  1  0
 29 30  2  0
 29 31  1  0
M  END
>  <Gold.Gold.Protein.RotatedWaterAtoms>  (76) 


>  <Gold.Id.Protein>  (76) 


>  <Gold.PLP.Chemscore.CHOScore>  (76) 
0.0000

>  <Gold.PLP.Chemscore.Hbond>  (76) 
1.2080

>  <Gold.PLP.Chemscore.Internal.Correction>  (76) 
0.1232

>  <Gold.PLP.Chemscore.Metal>  (76) 
0.0000

>  <Gold.PLP.Fitness>  (76) 
47.7145

>  <Gold.PLP.PLP>  (76) 
-46.0218

>  <Gold.PLP.ligand.clash>  (76) 
0.0000

>  <Gold.PLP.ligand.torsion>  (76) 
1.0272

>  <Gold.PLP.part.buried>  (76) 
-2.2958

>  <Gold.PLP.part.hbond>  (76) 
-4.0214

>  <Gold.PLP.part.metal>  (76) 
0.0000

>  <Gold.PLP.part.nonpolar>  (76) 
-41.4699

>  <Gold.PLP.part.repulsive>  (76) 
0.9524

>  <Gold.Protein.RotatedAtoms>  (76) 


>  <Gold.Protein.RotatedTorsions>  (76) 


>  <Gold.Protein.RotatedWaterAtoms>  (76) 


>  <Gold.Version>  (76) 
5.3.0

>  <PLP.Chemscore.CHOScore>  (76) 


>  <PLP.Chemscore.Hbond>  (76) 


>  <PLP.Chemscore.Internal.Correction>  (76) 


>  <PLP.Chemscore.Metal>  (76) 


>  <PLP.Fitness>  (76) 


>  <PLP.PLP>  (76) 


>  <PLP.ligand.clash>  (76) 


>  <PLP.ligand.torsion>  (76) 


>  <PLP.part.buried>  (76) 


>  <PLP.part.hbond>  (76) 


>  <PLP.part.metal>  (76) 


>  <PLP.part.nonpolar>  (76) 


>  <PLP.part.repulsive>  (76) 


>  <RMSD>  (76) 
0.291955871297

>  <Torsion>  (76) 
171.923704933

>  <TorsionO>  (76) 
6.03609353985

>  <TorsionR>  (76) 
177.959798473

>  <Version>  (76) 


>  <product>  (76) 
19|Compound_8|Compounds_3D_F|sdf|4|dock9|1

>  <rmsd>  (76) 
-1

$$$$
193|32168_281|Aromatic_primary_amines_F|sdf|39|dock6|1
     RDKit          3D

 23 25  0  0  0  0  0  0  0  0999 V2000
   -7.8439  -12.1461   11.8919 C   0  0  0  0  0  0  0  0  0  0  0  0
   -8.5691  -13.4472   11.6781 C   0  0  0  0  0  0  0  0  0  0  0  0
   -9.7886  -13.4981   11.5208 O   0  0  0  0  0  0  0  0  0  0  0  0
   -7.7264  -14.5390   11.7020 N   0  0  0  0  0  0  0  0  0  0  0  0
   -8.1889  -15.8197   11.5323 C   0  0  0  0  0  0  0  0  0  0  0  0
   -9.4747  -16.2039   11.8163 N   0  0  0  0  0  0  0  0  0  0  0  0
   -9.5964  -17.5375   11.5379 C   0  0  0  0  0  0  0  0  0  0  0  0
  -10.6643  -18.4283   11.6415 C   0  0  0  0  0  0  0  0  0  0  0  0
  -10.4051  -19.7586   11.2778 C   0  0  0  0  0  0  0  0  0  0  0  0
   -9.1530  -20.1507   10.7795 C   0  0  0  0  0  0  0  0  0  0  0  0
   -8.1017  -19.2294   10.6839 C   0  0  0  0  0  0  0  0  0  0  0  0
   -8.3349  -17.9032   11.0783 C   0  0  0  0  0  0  0  0  0  0  0  0
   -7.4773  -16.8281   11.0838 N   0  0  0  0  0  0  0  0  0  0  0  0
   -8.8530  -21.7658   10.2429 Cl  0  0  0  0  0  0  0  0  0  0  0  0
  -11.4669  -20.6323   11.3734 O   0  0  0  0  0  0  0  0  0  0  0  0
  -12.5262  -20.4408   10.5053 C   0  0  0  0  0  0  0  0  0  0  0  0
  -13.3188  -19.2846   10.5304 C   0  0  0  0  0  0  0  0  0  0  0  0
  -14.3665  -19.1344    9.6224 C   0  0  0  0  0  0  0  0  0  0  0  0
  -14.6219  -20.1279    8.6796 C   0  0  0  0  0  0  0  0  0  0  0  0
  -13.8238  -21.2756    8.6345 C   0  0  0  0  0  0  0  0  0  0  0  0
  -12.7674  -21.4342    9.5416 C   0  0  0  0  0  0  0  0  0  0  0  0
  -11.7588  -22.8458    9.4996 Cl  0  0  0  0  0  0  0  0  0  0  0  0
  -14.1988  -22.4584    7.4296 Cl  0  0  0  0  0  0  0  0  0  0  0  0
  1  2  1  0
  2  3  2  0
  2  4  1  0
  4  5  1  0
  5  6  1  0
  5 13  2  0
  6  7  1  0
  7  8  2  0
  7 12  1  0
  8  9  1  0
  9 10  2  0
  9 15  1  0
 10 11  1  0
 10 14  1  0
 11 12  2  0
 12 13  1  0
 15 16  1  0
 16 17  2  0
 16 21  1  0
 17 18  1  0
 18 19  2  0
 19 20  1  0
 20 21  2  0
 20 23  1  0
 21 22  1  0
M  END
>  <Gold.Gold.Protein.RotatedWaterAtoms>  (77) 


>  <Gold.Id.Protein>  (77) 


>  <Gold.PLP.Chemscore.CHOScore>  (77) 
0.0000

>  <Gold.PLP.Chemscore.Hbond>  (77) 
1.0000

>  <Gold.PLP.Chemscore.Internal.Correction>  (77) 
0.0086

>  <Gold.PLP.Chemscore.Metal>  (77) 
0.0000

>  <Gold.PLP.Fitness>  (77) 
50.7139

>  <Gold.PLP.PLP>  (77) 
-48.1706

>  <Gold.PLP.ligand.clash>  (77) 
0.0000

>  <Gold.PLP.ligand.torsion>  (77) 
0.2327

>  <Gold.PLP.part.buried>  (77) 
-6.5205

>  <Gold.PLP.part.hbond>  (77) 
-2.0000

>  <Gold.PLP.part.metal>  (77) 
0.0000

>  <Gold.PLP.part.nonpolar>  (77) 
-39.3857

>  <Gold.PLP.part.repulsive>  (77) 
0.3298

>  <Gold.Protein.RotatedAtoms>  (77) 


>  <Gold.Protein.RotatedTorsions>  (77) 


>  <Gold.Protein.RotatedWaterAtoms>  (77) 


>  <Gold.Version>  (77) 
5.3.0

>  <PLP.Chemscore.CHOScore>  (77) 


>  <PLP.Chemscore.Hbond>  (77) 


>  <PLP.Chemscore.Internal.Correction>  (77) 


>  <PLP.Chemscore.Metal>  (77) 


>  <PLP.Fitness>  (77) 


>  <PLP.PLP>  (77) 


>  <PLP.ligand.clash>  (77) 


>  <PLP.ligand.torsion>  (77) 


>  <PLP.part.buried>  (77) 


>  <PLP.part.hbond>  (77) 


>  <PLP.part.metal>  (77) 


>  <PLP.part.nonpolar>  (77) 


>  <PLP.part.repulsive>  (77) 


>  <RMSD>  (77) 
0.439733510035

>  <Torsion>  (77) 
177.672185574

>  <TorsionO>  (77) 
4.31728583372

>  <TorsionR>  (77) 
173.35489974

>  <Version>  (77) 


>  <product>  (77) 
19|Compound_8|Compounds_3D_F|sdf|4|dock9|1

>  <rmsd>  (77) 
-1

$$$$
34|Compound_19|Compounds_3D_F|sdf|6|dock7|1
     RDKit          3D

 12 11  0  0  0  0  0  0  0  0999 V2000
   -4.6076  -12.2127   13.3814 O   0  0  0  0  0  0  0  0  0  0  0  0
   -5.6147  -12.3657   12.5085 C   0  0  0  0  0  0  0  0  0  0  0  0
   -6.1006  -11.3988   11.9696 O   0  0  0  0  0  0  0  0  0  0  0  0
   -6.1416  -13.7435   12.1995 C   0  0  0  0  0  0  0  0  0  0  0  0
   -5.0403  -14.5995   11.7512 N   0  0  0  0  0  0  0  0  0  0  0  0
   -5.0123  -15.9007   12.0997 C   0  0  0  0  0  0  0  0  0  0  0  0
   -5.8999  -16.3634   12.7848 O   0  0  0  0  0  0  0  0  0  0  0  0
   -3.8796  -16.7809   11.6382 C   0  0  0  0  0  0  0  0  0  0  0  0
   -3.9056  -16.8848   10.1770 N   0  0  0  0  0  0  0  0  0  0  0  0
   -2.8087  -17.2955    9.5110 C   0  0  0  0  0  0  0  0  0  0  0  0
   -1.7997  -17.5792   10.1205 O   0  0  0  0  0  0  0  0  0  0  0  0
   -2.8365  -17.4063    7.9450 B   0  0  0  0  0  0  0  0  0  0  0  0
  1  2  1  0
  2  3  2  0
  2  4  1  0
  4  5  1  0
  5  6  1  0
  6  7  2  0
  6  8  1  0
  8  9  1  0
  9 10  1  0
 10 11  2  0
 10 12  1  0
M  END
>  <Gold.Gold.Protein.RotatedWaterAtoms>  (78) 


>  <Gold.Id.Protein>  (78) 


>  <Gold.PLP.Chemscore.CHOScore>  (78) 
0.0000

>  <Gold.PLP.Chemscore.Hbond>  (78) 
2.9920

>  <Gold.PLP.Chemscore.Internal.Correction>  (78) 
0.0038

>  <Gold.PLP.Chemscore.Metal>  (78) 
0.0000

>  <Gold.PLP.Fitness>  (78) 
39.0624

>  <Gold.PLP.PLP>  (78) 
-30.7508

>  <Gold.PLP.ligand.clash>  (78) 
0.0000

>  <Gold.PLP.ligand.torsion>  (78) 
0.3341

>  <Gold.PLP.part.buried>  (78) 
-7.3771

>  <Gold.PLP.part.hbond>  (78) 
-6.3378

>  <Gold.PLP.part.metal>  (78) 
0.0000

>  <Gold.PLP.part.nonpolar>  (78) 
-16.7481

>  <Gold.PLP.part.repulsive>  (78) 
0.5929

>  <Gold.Protein.RotatedAtoms>  (78) 


>  <Gold.Protein.RotatedTorsions>  (78) 


>  <Gold.Protein.RotatedWaterAtoms>  (78) 


>  <Gold.Version>  (78) 
5.3.0

>  <PLP.Chemscore.CHOScore>  (78) 


>  <PLP.Chemscore.Hbond>  (78) 


>  <PLP.Chemscore.Internal.Correction>  (78) 


>  <PLP.Chemscore.Metal>  (78) 


>  <PLP.Fitness>  (78) 


>  <PLP.PLP>  (78) 


>  <PLP.ligand.clash>  (78) 


>  <PLP.ligand.torsion>  (78) 


>  <PLP.part.buried>  (78) 


>  <PLP.part.hbond>  (78) 


>  <PLP.part.metal>  (78) 


>  <PLP.part.nonpolar>  (78) 


>  <PLP.part.repulsive>  (78) 


>  <Version>  (78) 


$$$$
94|664022_40|Aromatic_carboxylic_acids_F|sdf|24|dock1|1
     RDKit          3D

 12 12  0  0  0  0  0  0  0  0999 V2000
   -8.2596  -17.1212   11.4595 C   0  0  0  0  0  0  0  0  0  0  0  0
   -7.6366  -15.8367   11.6688 N   0  0  0  0  0  0  0  0  0  0  0  0
   -8.3409  -14.6553   11.5719 C   0  0  0  0  0  0  0  0  0  0  0  0
   -9.5296  -14.5547   11.2978 O   0  0  0  0  0  0  0  0  0  0  0  0
   -7.5420  -13.4431   11.8503 C   0  0  0  0  0  0  0  0  0  0  0  0
   -8.1627  -12.1983   11.6738 C   0  0  0  0  0  0  0  0  0  0  0  0
   -7.4390  -11.0301   11.9055 C   0  0  0  0  0  0  0  0  0  0  0  0
   -6.1069  -11.0910   12.3103 C   0  0  0  0  0  0  0  0  0  0  0  0
   -5.4897  -12.3324   12.4853 C   0  0  0  0  0  0  0  0  0  0  0  0
   -6.2035  -13.5136   12.2549 C   0  0  0  0  0  0  0  0  0  0  0  0
   -5.3062  -15.1564   12.5638 Br  0  0  0  0  0  0  0  0  0  0  0  0
   -8.1960   -9.5005   11.6887 Cl  0  0  0  0  0  0  0  0  0  0  0  0
  1  2  1  0
  2  3  1  0
  3  4  2  0
  3  5  1  0
  5  6  2  0
  5 10  1  0
  6  7  1  0
  7  8  2  0
  7 12  1  0
  8  9  1  0
  9 10  2  0
 10 11  1  0
M  END
>  <Gold.Gold.Protein.RotatedWaterAtoms>  (79) 


>  <Gold.Id.Protein>  (79) 


>  <Gold.PLP.Chemscore.CHOScore>  (79) 
0.0000

>  <Gold.PLP.Chemscore.Hbond>  (79) 
0.4160

>  <Gold.PLP.Chemscore.Internal.Correction>  (79) 
0.0004

>  <Gold.PLP.Chemscore.Metal>  (79) 
0.0000

>  <Gold.PLP.Fitness>  (79) 
48.9046

>  <Gold.PLP.PLP>  (79) 
-47.6744

>  <Gold.PLP.ligand.clash>  (79) 
0.0000

>  <Gold.PLP.ligand.torsion>  (79) 
0.0091

>  <Gold.PLP.part.buried>  (79) 
-7.3578

>  <Gold.PLP.part.hbond>  (79) 
-0.5127

>  <Gold.PLP.part.metal>  (79) 
0.0000

>  <Gold.PLP.part.nonpolar>  (79) 
-40.3098

>  <Gold.PLP.part.repulsive>  (79) 
0.1684

>  <Gold.Protein.RotatedAtoms>  (79) 


>  <Gold.Protein.RotatedTorsions>  (79) 


>  <Gold.Protein.RotatedWaterAtoms>  (79) 


>  <Gold.Version>  (79) 
5.3.0

>  <PLP.Chemscore.CHOScore>  (79) 


>  <PLP.Chemscore.Hbond>  (79) 


>  <PLP.Chemscore.Internal.Correction>  (79) 


>  <PLP.Chemscore.Metal>  (79) 


>  <PLP.Fitness>  (79) 


>  <PLP.PLP>  (79) 


>  <PLP.ligand.clash>  (79) 


>  <PLP.ligand.torsion>  (79) 


>  <PLP.part.buried>  (79) 


>  <PLP.part.hbond>  (79) 


>  <PLP.part.metal>  (79) 


>  <PLP.part.nonpolar>  (79) 


>  <PLP.part.repulsive>  (79) 


>  <RMSD>  (79) 
0.30972197429

>  <Torsion>  (79) 
172.929186758

>  <TorsionO>  (79) 
24.4968065243

>  <TorsionR>  (79) 
162.574006718

>  <Version>  (79) 


>  <product>  (79) 
34|Compound_19|Compounds_3D_F|sdf|6|dock7|1

>  <rmsd>  (79) 
-1

$$$$
110|565385_49|Aromatic_carboxylic_acids_F|sdf|29|dock1|1
     RDKit          3D

 13 13  0  0  0  0  0  0  0  0999 V2000
  -10.1118  -17.9021   11.6320 C   0  0  0  0  0  0  0  0  0  0  0  0
   -9.7537  -16.5043   11.6546 N   0  0  0  0  0  0  0  0  0  0  0  0
   -8.4330  -16.1187   11.7930 C   0  0  0  0  0  0  0  0  0  0  0  0
   -7.5159  -16.9298   11.9008 O   0  0  0  0  0  0  0  0  0  0  0  0
   -8.1234  -14.6552   11.8105 C   0  0  0  0  0  0  0  0  0  0  0  0
   -9.0636  -13.6551   11.5375 C   0  0  0  0  0  0  0  0  0  0  0  0
   -8.6966  -12.3009   11.5726 C   0  0  0  0  0  0  0  0  0  0  0  0
   -7.3879  -11.9195   11.8809 C   0  0  0  0  0  0  0  0  0  0  0  0
   -6.4486  -12.9235   12.1551 C   0  0  0  0  0  0  0  0  0  0  0  0
   -6.8098  -14.2750   12.1207 C   0  0  0  0  0  0  0  0  0  0  0  0
   -4.6444  -12.5025   12.5849 Br  0  0  0  0  0  0  0  0  0  0  0  0
   -6.9476  -10.6242   11.9372 O   0  0  0  0  0  0  0  0  0  0  0  0
   -7.9020   -9.5910   11.7256 C   0  0  0  0  0  0  0  0  0  0  0  0
  1  2  1  0
  2  3  1  0
  3  4  2  0
  3  5  1  0
  5  6  2  0
  5 10  1  0
  6  7  1  0
  7  8  2  0
  8  9  1  0
  8 12  1  0
  9 10  2  0
  9 11  1  0
 12 13  1  0
M  END
>  <Gold.Gold.Protein.RotatedWaterAtoms>  (80) 


>  <Gold.Id.Protein>  (80) 


>  <Gold.PLP.Chemscore.CHOScore>  (80) 
0.0000

>  <Gold.PLP.Chemscore.Hbond>  (80) 
1.0000

>  <Gold.PLP.Chemscore.Internal.Correction>  (80) 
0.0000

>  <Gold.PLP.Chemscore.Metal>  (80) 
0.0000

>  <Gold.PLP.Fitness>  (80) 
43.9775

>  <Gold.PLP.PLP>  (80) 
-41.0517

>  <Gold.PLP.ligand.clash>  (80) 
0.0000

>  <Gold.PLP.ligand.torsion>  (80) 
0.0371

>  <Gold.PLP.part.buried>  (80) 
-3.7367

>  <Gold.PLP.part.hbond>  (80) 
-1.0000

>  <Gold.PLP.part.metal>  (80) 
0.0000

>  <Gold.PLP.part.nonpolar>  (80) 
-36.7483

>  <Gold.PLP.part.repulsive>  (80) 
0.4054

>  <Gold.Protein.RotatedAtoms>  (80) 


>  <Gold.Protein.RotatedTorsions>  (80) 


>  <Gold.Protein.RotatedWaterAtoms>  (80) 


>  <Gold.Version>  (80) 
5.3.0

>  <PLP.Chemscore.CHOScore>  (80) 


>  <PLP.Chemscore.Hbond>  (80) 


>  <PLP.Chemscore.Internal.Correction>  (80) 


>  <PLP.Chemscore.Metal>  (80) 


>  <PLP.Fitness>  (80) 


>  <PLP.PLP>  (80) 


>  <PLP.ligand.clash>  (80) 


>  <PLP.ligand.torsion>  (80) 


>  <PLP.part.buried>  (80) 


>  <PLP.part.hbond>  (80) 


>  <PLP.part.metal>  (80) 


>  <PLP.part.nonpolar>  (80) 


>  <PLP.part.repulsive>  (80) 


>  <RMSD>  (80) 
0.319376411377

>  <Torsion>  (80) 
169.460450784

>  <TorsionO>  (80) 
9.7963905484

>  <TorsionR>  (80) 
179.256841332

>  <Version>  (80) 


>  <product>  (80) 
34|Compound_19|Compounds_3D_F|sdf|6|dock7|1

>  <rmsd>  (80) 
-1

$$$$
128|137677_56|Aromatic_carboxylic_acids_F|sdf|33|dock1|1
     RDKit          3D

 11 11  0  0  0  0  0  0  0  0999 V2000
   -8.6116  -16.1544   11.8887 C   0  0  0  0  0  0  0  0  0  0  0  0
   -7.9978  -14.8484   11.9215 N   0  0  0  0  0  0  0  0  0  0  0  0
   -8.7778  -13.7008   11.8756 C   0  0  0  0  0  0  0  0  0  0  0  0
  -10.0002  -13.7896   11.8139 O   0  0  0  0  0  0  0  0  0  0  0  0
   -8.0808  -12.3609   11.9017 C   0  0  0  0  0  0  0  0  0  0  0  0
   -8.7916  -11.1851   11.5813 C   0  0  0  0  0  0  0  0  0  0  0  0
   -8.1781   -9.9267   11.5989 C   0  0  0  0  0  0  0  0  0  0  0  0
   -6.8391   -9.8089   11.9369 C   0  0  0  0  0  0  0  0  0  0  0  0
   -6.1124  -10.9502   12.2575 C   0  0  0  0  0  0  0  0  0  0  0  0
   -6.7171  -12.2196   12.2428 C   0  0  0  0  0  0  0  0  0  0  0  0
   -5.5419  -13.6455   12.7121 Br  0  0  0  0  0  0  0  0  0  0  0  0
  1  2  1  0
  2  3  1  0
  3  4  2  0
  3  5  1  0
  5  6  2  0
  5 10  1  0
  6  7  1  0
  7  8  2  0
  8  9  1  0
  9 10  2  0
 10 11  1  0
M  END
>  <Gold.Gold.Protein.RotatedWaterAtoms>  (81) 


>  <Gold.Id.Protein>  (81) 


>  <Gold.PLP.Chemscore.CHOScore>  (81) 
0.0000

>  <Gold.PLP.Chemscore.Hbond>  (81) 
1.0000

>  <Gold.PLP.Chemscore.Internal.Correction>  (81) 
0.0000

>  <Gold.PLP.Chemscore.Metal>  (81) 
0.0000

>  <Gold.PLP.Fitness>  (81) 
45.2899

>  <Gold.PLP.PLP>  (81) 
-42.4444

>  <Gold.PLP.ligand.clash>  (81) 
0.0000

>  <Gold.PLP.ligand.torsion>  (81) 
0.0772

>  <Gold.PLP.part.buried>  (81) 
-6.4690

>  <Gold.PLP.part.hbond>  (81) 
-0.6863

>  <Gold.PLP.part.metal>  (81) 
0.0000

>  <Gold.PLP.part.nonpolar>  (81) 
-34.8280

>  <Gold.PLP.part.repulsive>  (81) 
0.1963

>  <Gold.Protein.RotatedAtoms>  (81) 


>  <Gold.Protein.RotatedTorsions>  (81) 


>  <Gold.Protein.RotatedWaterAtoms>  (81) 


>  <Gold.Version>  (81) 
5.3.0

>  <PLP.Chemscore.CHOScore>  (81) 


>  <PLP.Chemscore.Hbond>  (81) 


>  <PLP.Chemscore.Internal.Correction>  (81) 


>  <PLP.Chemscore.Metal>  (81) 


>  <PLP.Fitness>  (81) 


>  <PLP.PLP>  (81) 


>  <PLP.ligand.clash>  (81) 


>  <PLP.ligand.torsion>  (81) 


>  <PLP.part.buried>  (81) 


>  <PLP.part.hbond>  (81) 


>  <PLP.part.metal>  (81) 


>  <PLP.part.nonpolar>  (81) 


>  <PLP.part.repulsive>  (81) 


>  <RMSD>  (81) 
0.428070490903

>  <Torsion>  (81) 
152.444048788

>  <TorsionO>  (81) 
39.0580871276

>  <TorsionR>  (81) 
168.497864085

>  <Version>  (81) 


>  <product>  (81) 
34|Compound_19|Compounds_3D_F|sdf|6|dock7|1

>  <rmsd>  (81) 
-1

$$$$
974|750794_1404|Aromatic_primary_amines_F|sdf|194|dock3|1
     RDKit          3D

 14 14  0  0  0  0  0  0  0  0999 V2000
  -13.6355  -18.1936    9.4145 C   0  0  0  0  0  0  0  0  0  0  0  0
  -13.2544  -19.4497   10.1732 C   0  0  0  0  0  0  0  0  0  0  0  0
  -11.8731  -19.3506   10.5383 O   0  0  0  0  0  0  0  0  0  0  0  0
  -11.6148  -18.5085   11.5823 C   0  0  0  0  0  0  0  0  0  0  0  0
  -12.3947  -18.2810   12.5004 O   0  0  0  0  0  0  0  0  0  0  0  0
  -10.3031  -17.8985   11.4902 C   0  0  0  0  0  0  0  0  0  0  0  0
   -9.1673  -18.4974   10.9931 C   0  0  0  0  0  0  0  0  0  0  0  0
   -8.1448  -17.6055   11.0758 O   0  0  0  0  0  0  0  0  0  0  0  0
   -8.7110  -16.4917   11.6237 C   0  0  0  0  0  0  0  0  0  0  0  0
   -9.9933  -16.6110   11.8915 N   0  0  0  0  0  0  0  0  0  0  0  0
   -7.9611  -15.3718   11.8549 N   0  0  0  0  0  0  0  0  0  0  0  0
   -8.5046  -14.1249   12.0676 C   0  0  0  0  0  0  0  0  0  0  0  0
   -9.6950  -13.8313   12.1035 O   0  0  0  0  0  0  0  0  0  0  0  0
   -7.4448  -13.0785   12.3021 C   0  0  0  0  0  0  0  0  0  0  0  0
  1  2  1  0
  2  3  1  0
  3  4  1  0
  4  5  2  0
  4  6  1  0
  6  7  2  0
  6 10  1  0
  7  8  1  0
  8  9  1  0
  9 10  2  0
  9 11  1  0
 11 12  1  0
 12 13  2  0
 12 14  1  0
M  END
>  <Gold.Gold.Protein.RotatedWaterAtoms>  (82) 


>  <Gold.Id.Protein>  (82) 


>  <Gold.PLP.Chemscore.CHOScore>  (82) 
0.0000

>  <Gold.PLP.Chemscore.Hbond>  (82) 
2.0000

>  <Gold.PLP.Chemscore.Internal.Correction>  (82) 
0.0053

>  <Gold.PLP.Chemscore.Metal>  (82) 
0.0000

>  <Gold.PLP.Fitness>  (82) 
36.8047

>  <Gold.PLP.PLP>  (82) 
-32.7996

>  <Gold.PLP.ligand.clash>  (82) 
0.0000

>  <Gold.PLP.ligand.torsion>  (82) 
1.0001

>  <Gold.PLP.part.buried>  (82) 
-6.5206

>  <Gold.PLP.part.hbond>  (82) 
-2.9156

>  <Gold.PLP.part.metal>  (82) 
0.0000

>  <Gold.PLP.part.nonpolar>  (82) 
-23.4080

>  <Gold.PLP.part.repulsive>  (82) 
0.3100

>  <Gold.Protein.RotatedAtoms>  (82) 


>  <Gold.Protein.RotatedTorsions>  (82) 


>  <Gold.Protein.RotatedWaterAtoms>  (82) 


>  <Gold.Version>  (82) 
5.3.0

>  <PLP.Chemscore.CHOScore>  (82) 


>  <PLP.Chemscore.Hbond>  (82) 


>  <PLP.Chemscore.Internal.Correction>  (82) 


>  <PLP.Chemscore.Metal>  (82) 


>  <PLP.Fitness>  (82) 


>  <PLP.PLP>  (82) 


>  <PLP.ligand.clash>  (82) 


>  <PLP.ligand.torsion>  (82) 


>  <PLP.part.buried>  (82) 


>  <PLP.part.hbond>  (82) 


>  <PLP.part.metal>  (82) 


>  <PLP.part.nonpolar>  (82) 


>  <PLP.part.repulsive>  (82) 


>  <RMSD>  (82) 
0.499949349045

>  <Torsion>  (82) 
159.973716791

>  <TorsionO>  (82) 
19.1052109979

>  <TorsionR>  (82) 
179.078927789

>  <Version>  (82) 


>  <product>  (82) 
34|Compound_19|Compounds_3D_F|sdf|6|dock7|1

>  <rmsd>  (82) 
-1

$$$$
1884|M3006_1781|Aromatic_primary_amines_F|sdf|361|dock3|1
     RDKit          3D

 31 34  0  0  0  0  0  0  0  0999 V2000
  -14.4210  -19.8971    8.7934 C   0  0  0  0  0  0  0  0  0  0  0  0
  -13.9762  -19.4927   10.1894 C   0  0  0  0  0  0  0  0  0  0  0  0
  -14.1356  -20.6409   11.1817 C   0  0  0  0  0  0  0  0  0  0  0  0
  -13.5197  -20.3070   12.5189 C   0  0  0  0  0  0  0  0  0  0  0  0
  -12.9307  -19.2724   12.7954 O   0  0  0  0  0  0  0  0  0  0  0  0
  -13.7110  -21.3451   13.3845 O   0  0  0  0  0  0  0  0  0  0  0  0
  -12.9425  -21.2698   14.5900 C   0  0  0  0  0  0  0  0  0  0  0  0
  -12.8849  -22.6189   15.2889 C   0  0  0  0  0  0  0  0  0  0  0  0
  -11.6552  -22.4172   16.1494 C   0  0  0  0  0  0  0  0  0  0  0  0
  -11.2420  -23.7410   16.7624 C   0  0  0  0  0  0  0  0  0  0  0  0
  -12.3024  -24.2223   17.5862 O   0  0  0  0  0  0  0  0  0  0  0  0
  -13.7888  -24.3384   16.9603 P   0  0  0  0  0  0  0  0  0  0  0  0
  -14.8775  -24.6795   17.9243 O   0  0  0  0  0  0  0  0  0  0  0  0
  -13.9839  -22.9641   16.1174 O   0  0  0  0  0  0  0  0  0  0  0  0
  -13.5991  -25.4435   15.8075 O   0  0  0  0  0  0  0  0  0  0  0  0
  -10.6922  -21.8161   15.2889 O   0  0  0  0  0  0  0  0  0  0  0  0
  -11.4338  -20.9664   14.3653 C   0  0  0  0  0  0  0  0  0  0  0  0
  -10.9052  -21.2017   13.0342 N   0  0  0  0  0  0  0  0  0  0  0  0
  -10.7814  -22.4114   12.4013 C   0  0  0  0  0  0  0  0  0  0  0  0
  -10.2640  -22.2918   11.1953 N   0  0  0  0  0  0  0  0  0  0  0  0
  -10.0274  -20.9476   11.0424 C   0  0  0  0  0  0  0  0  0  0  0  0
  -10.4203  -20.2487   12.1733 C   0  0  0  0  0  0  0  0  0  0  0  0
  -10.3338  -18.9216   12.3641 N   0  0  0  0  0  0  0  0  0  0  0  0
   -9.8057  -18.2730   11.3024 C   0  0  0  0  0  0  0  0  0  0  0  0
   -9.3808  -18.8370   10.1545 N   0  0  0  0  0  0  0  0  0  0  0  0
   -9.4895  -20.1691   10.0244 C   0  0  0  0  0  0  0  0  0  0  0  0
   -9.0330  -20.6622    8.8349 O   0  0  0  0  0  0  0  0  0  0  0  0
   -9.7222  -16.8901   11.4793 N   0  0  0  0  0  0  0  0  0  0  0  0
   -8.5796  -16.1798   11.7761 C   0  0  0  0  0  0  0  0  0  0  0  0
   -7.4445  -16.6221   11.9131 O   0  0  0  0  0  0  0  0  0  0  0  0
   -8.8524  -14.7024   11.8973 C   0  0  0  0  0  0  0  0  0  0  0  0
  1  2  1  0
  2  3  1  0
  3  4  1  0
  4  5  2  0
  4  6  1  0
  6  7  1  0
  7  8  1  0
  7 17  1  0
  8  9  1  0
  8 14  1  0
  9 10  1  0
  9 16  1  0
 10 11  1  0
 11 12  1  0
 12 13  2  0
 12 14  1  0
 12 15  1  0
 16 17  1  0
 17 18  1  0
 18 19  1  0
 18 22  1  0
 19 20  2  0
 20 21  1  0
 21 22  2  0
 21 26  1  0
 22 23  1  0
 23 24  2  0
 24 25  1  0
 24 28  1  0
 25 26  2  0
 26 27  1  0
 28 29  1  0
 29 30  2  0
 29 31  1  0
M  END
>  <Gold.Gold.Protein.RotatedWaterAtoms>  (83) 


>  <Gold.Id.Protein>  (83) 


>  <Gold.PLP.Chemscore.CHOScore>  (83) 
0.0000

>  <Gold.PLP.Chemscore.Hbond>  (83) 
1.2080

>  <Gold.PLP.Chemscore.Internal.Correction>  (83) 
0.1232

>  <Gold.PLP.Chemscore.Metal>  (83) 
0.0000

>  <Gold.PLP.Fitness>  (83) 
47.7145

>  <Gold.PLP.PLP>  (83) 
-46.0218

>  <Gold.PLP.ligand.clash>  (83) 
0.0000

>  <Gold.PLP.ligand.torsion>  (83) 
1.0272

>  <Gold.PLP.part.buried>  (83) 
-2.2958

>  <Gold.PLP.part.hbond>  (83) 
-4.0214

>  <Gold.PLP.part.metal>  (83) 
0.0000

>  <Gold.PLP.part.nonpolar>  (83) 
-41.4699

>  <Gold.PLP.part.repulsive>  (83) 
0.9524

>  <Gold.Protein.RotatedAtoms>  (83) 


>  <Gold.Protein.RotatedTorsions>  (83) 


>  <Gold.Protein.RotatedWaterAtoms>  (83) 


>  <Gold.Version>  (83) 
5.3.0

>  <PLP.Chemscore.CHOScore>  (83) 


>  <PLP.Chemscore.Hbond>  (83) 


>  <PLP.Chemscore.Internal.Correction>  (83) 


>  <PLP.Chemscore.Metal>  (83) 


>  <PLP.Fitness>  (83) 


>  <PLP.PLP>  (83) 


>  <PLP.ligand.clash>  (83) 


>  <PLP.ligand.torsion>  (83) 


>  <PLP.part.buried>  (83) 


>  <PLP.part.hbond>  (83) 


>  <PLP.part.metal>  (83) 


>  <PLP.part.nonpolar>  (83) 


>  <PLP.part.repulsive>  (83) 


>  <RMSD>  (83) 
0.291955871297

>  <Torsion>  (83) 
171.923704933

>  <TorsionO>  (83) 
6.03609353985

>  <TorsionR>  (83) 
177.959798473

>  <Version>  (83) 


>  <product>  (83) 
34|Compound_19|Compounds_3D_F|sdf|6|dock7|1

>  <rmsd>  (83) 
-1

$$$$
193|32168_281|Aromatic_primary_amines_F|sdf|39|dock6|1
     RDKit          3D

 23 25  0  0  0  0  0  0  0  0999 V2000
   -7.8439  -12.1461   11.8919 C   0  0  0  0  0  0  0  0  0  0  0  0
   -8.5691  -13.4472   11.6781 C   0  0  0  0  0  0  0  0  0  0  0  0
   -9.7886  -13.4981   11.5208 O   0  0  0  0  0  0  0  0  0  0  0  0
   -7.7264  -14.5390   11.7020 N   0  0  0  0  0  0  0  0  0  0  0  0
   -8.1889  -15.8197   11.5323 C   0  0  0  0  0  0  0  0  0  0  0  0
   -9.4747  -16.2039   11.8163 N   0  0  0  0  0  0  0  0  0  0  0  0
   -9.5964  -17.5375   11.5379 C   0  0  0  0  0  0  0  0  0  0  0  0
  -10.6643  -18.4283   11.6415 C   0  0  0  0  0  0  0  0  0  0  0  0
  -10.4051  -19.7586   11.2778 C   0  0  0  0  0  0  0  0  0  0  0  0
   -9.1530  -20.1507   10.7795 C   0  0  0  0  0  0  0  0  0  0  0  0
   -8.1017  -19.2294   10.6839 C   0  0  0  0  0  0  0  0  0  0  0  0
   -8.3349  -17.9032   11.0783 C   0  0  0  0  0  0  0  0  0  0  0  0
   -7.4773  -16.8281   11.0838 N   0  0  0  0  0  0  0  0  0  0  0  0
   -8.8530  -21.7658   10.2429 Cl  0  0  0  0  0  0  0  0  0  0  0  0
  -11.4669  -20.6323   11.3734 O   0  0  0  0  0  0  0  0  0  0  0  0
  -12.5262  -20.4408   10.5053 C   0  0  0  0  0  0  0  0  0  0  0  0
  -13.3188  -19.2846   10.5304 C   0  0  0  0  0  0  0  0  0  0  0  0
  -14.3665  -19.1344    9.6224 C   0  0  0  0  0  0  0  0  0  0  0  0
  -14.6219  -20.1279    8.6796 C   0  0  0  0  0  0  0  0  0  0  0  0
  -13.8238  -21.2756    8.6345 C   0  0  0  0  0  0  0  0  0  0  0  0
  -12.7674  -21.4342    9.5416 C   0  0  0  0  0  0  0  0  0  0  0  0
  -11.7588  -22.8458    9.4996 Cl  0  0  0  0  0  0  0  0  0  0  0  0
  -14.1988  -22.4584    7.4296 Cl  0  0  0  0  0  0  0  0  0  0  0  0
  1  2  1  0
  2  3  2  0
  2  4  1  0
  4  5  1  0
  5  6  1  0
  5 13  2  0
  6  7  1  0
  7  8  2  0
  7 12  1  0
  8  9  1  0
  9 10  2  0
  9 15  1  0
 10 11  1  0
 10 14  1  0
 11 12  2  0
 12 13  1  0
 15 16  1  0
 16 17  2  0
 16 21  1  0
 17 18  1  0
 18 19  2  0
 19 20  1  0
 20 21  2  0
 20 23  1  0
 21 22  1  0
M  END
>  <Gold.Gold.Protein.RotatedWaterAtoms>  (84) 


>  <Gold.Id.Protein>  (84) 


>  <Gold.PLP.Chemscore.CHOScore>  (84) 
0.0000

>  <Gold.PLP.Chemscore.Hbond>  (84) 
1.0000

>  <Gold.PLP.Chemscore.Internal.Correction>  (84) 
0.0086

>  <Gold.PLP.Chemscore.Metal>  (84) 
0.0000

>  <Gold.PLP.Fitness>  (84) 
50.7139

>  <Gold.PLP.PLP>  (84) 
-48.1706

>  <Gold.PLP.ligand.clash>  (84) 
0.0000

>  <Gold.PLP.ligand.torsion>  (84) 
0.2327

>  <Gold.PLP.part.buried>  (84) 
-6.5205

>  <Gold.PLP.part.hbond>  (84) 
-2.0000

>  <Gold.PLP.part.metal>  (84) 
0.0000

>  <Gold.PLP.part.nonpolar>  (84) 
-39.3857

>  <Gold.PLP.part.repulsive>  (84) 
0.3298

>  <Gold.Protein.RotatedAtoms>  (84) 


>  <Gold.Protein.RotatedTorsions>  (84) 


>  <Gold.Protein.RotatedWaterAtoms>  (84) 


>  <Gold.Version>  (84) 
5.3.0

>  <PLP.Chemscore.CHOScore>  (84) 


>  <PLP.Chemscore.Hbond>  (84) 


>  <PLP.Chemscore.Internal.Correction>  (84) 


>  <PLP.Chemscore.Metal>  (84) 


>  <PLP.Fitness>  (84) 


>  <PLP.PLP>  (84) 


>  <PLP.ligand.clash>  (84) 


>  <PLP.ligand.torsion>  (84) 


>  <PLP.part.buried>  (84) 


>  <PLP.part.hbond>  (84) 


>  <PLP.part.metal>  (84) 


>  <PLP.part.nonpolar>  (84) 


>  <PLP.part.repulsive>  (84) 


>  <RMSD>  (84) 
0.439733510035

>  <Torsion>  (84) 
177.672185574

>  <TorsionO>  (84) 
4.31728583372

>  <TorsionR>  (84) 
173.35489974

>  <Version>  (84) 


>  <product>  (84) 
34|Compound_19|Compounds_3D_F|sdf|6|dock7|1

>  <rmsd>  (84) 
-1

$$$$
91|Compound_34|Compounds_3D_F|sdf|15|dock2|1
     RDKit          3D

 10  9  0  0  0  0  0  0  0  0999 V2000
   -4.2743  -12.0454   12.9267 O   0  0  0  0  0  0  0  0  0  0  0  0
   -5.5196  -12.3053   12.5010 C   0  0  0  0  0  0  0  0  0  0  0  0
   -6.2552  -11.3974   12.1911 O   0  0  0  0  0  0  0  0  0  0  0  0
   -6.0029  -13.7300   12.4094 C   0  0  0  0  0  0  0  0  0  0  0  0
   -4.9076  -14.5901   11.9545 N   0  0  0  0  0  0  0  0  0  0  0  0
   -4.9429  -15.9146   12.2023 C   0  0  0  0  0  0  0  0  0  0  0  0
   -5.8808  -16.3944   12.8019 O   0  0  0  0  0  0  0  0  0  0  0  0
   -3.7688  -16.8352   11.7152 B   0  0  0  0  0  0  0  0  0  0  0  0
   -7.1627  -13.8124   11.4144 C   0  0  0  0  0  0  0  0  0  0  0  0
   -8.2354  -12.9819   11.8634 O   0  0  0  0  0  0  0  0  0  0  0  0
  1  2  1  0
  2  3  2  0
  2  4  1  0
  4  5  1  0
  4  9  1  0
  5  6  1  0
  6  7  2  0
  6  8  1  0
  9 10  1  0
M  END
>  <Gold.Gold.Protein.RotatedWaterAtoms>  (85) 


>  <Gold.Id.Protein>  (85) 


>  <Gold.PLP.Chemscore.CHOScore>  (85) 
0.0000

>  <Gold.PLP.Chemscore.Hbond>  (85) 
1.9920

>  <Gold.PLP.Chemscore.Internal.Correction>  (85) 
0.0012

>  <Gold.PLP.Chemscore.Metal>  (85) 
0.0000

>  <Gold.PLP.Fitness>  (85) 
34.1421

>  <Gold.PLP.PLP>  (85) 
-30.0711

>  <Gold.PLP.ligand.clash>  (85) 
0.0000

>  <Gold.PLP.ligand.torsion>  (85) 
0.9531

>  <Gold.PLP.part.buried>  (85) 
-8.3674

>  <Gold.PLP.part.hbond>  (85) 
-3.7992

>  <Gold.PLP.part.metal>  (85) 
0.0000

>  <Gold.PLP.part.nonpolar>  (85) 
-17.7397

>  <Gold.PLP.part.repulsive>  (85) 
0.4480

>  <Gold.Protein.RotatedAtoms>  (85) 


>  <Gold.Protein.RotatedTorsions>  (85) 


>  <Gold.Protein.RotatedWaterAtoms>  (85) 


>  <Gold.Version>  (85) 
5.3.0

>  <PLP.Chemscore.CHOScore>  (85) 


>  <PLP.Chemscore.Hbond>  (85) 


>  <PLP.Chemscore.Internal.Correction>  (85) 


>  <PLP.Chemscore.Metal>  (85) 


>  <PLP.Fitness>  (85) 


>  <PLP.PLP>  (85) 


>  <PLP.ligand.clash>  (85) 


>  <PLP.ligand.torsion>  (85) 


>  <PLP.part.buried>  (85) 


>  <PLP.part.hbond>  (85) 


>  <PLP.part.metal>  (85) 


>  <PLP.part.nonpolar>  (85) 


>  <PLP.part.repulsive>  (85) 


>  <Version>  (85) 


$$$$
94|664022_40|Aromatic_carboxylic_acids_F|sdf|24|dock1|1
     RDKit          3D

 12 12  0  0  0  0  0  0  0  0999 V2000
   -8.2596  -17.1212   11.4595 C   0  0  0  0  0  0  0  0  0  0  0  0
   -7.6366  -15.8367   11.6688 N   0  0  0  0  0  0  0  0  0  0  0  0
   -8.3409  -14.6553   11.5719 C   0  0  0  0  0  0  0  0  0  0  0  0
   -9.5296  -14.5547   11.2978 O   0  0  0  0  0  0  0  0  0  0  0  0
   -7.5420  -13.4431   11.8503 C   0  0  0  0  0  0  0  0  0  0  0  0
   -8.1627  -12.1983   11.6738 C   0  0  0  0  0  0  0  0  0  0  0  0
   -7.4390  -11.0301   11.9055 C   0  0  0  0  0  0  0  0  0  0  0  0
   -6.1069  -11.0910   12.3103 C   0  0  0  0  0  0  0  0  0  0  0  0
   -5.4897  -12.3324   12.4853 C   0  0  0  0  0  0  0  0  0  0  0  0
   -6.2035  -13.5136   12.2549 C   0  0  0  0  0  0  0  0  0  0  0  0
   -5.3062  -15.1564   12.5638 Br  0  0  0  0  0  0  0  0  0  0  0  0
   -8.1960   -9.5005   11.6887 Cl  0  0  0  0  0  0  0  0  0  0  0  0
  1  2  1  0
  2  3  1  0
  3  4  2  0
  3  5  1  0
  5  6  2  0
  5 10  1  0
  6  7  1  0
  7  8  2  0
  7 12  1  0
  8  9  1  0
  9 10  2  0
 10 11  1  0
M  END
>  <Gold.Gold.Protein.RotatedWaterAtoms>  (86) 


>  <Gold.Id.Protein>  (86) 


>  <Gold.PLP.Chemscore.CHOScore>  (86) 
0.0000

>  <Gold.PLP.Chemscore.Hbond>  (86) 
0.4160

>  <Gold.PLP.Chemscore.Internal.Correction>  (86) 
0.0004

>  <Gold.PLP.Chemscore.Metal>  (86) 
0.0000

>  <Gold.PLP.Fitness>  (86) 
48.9046

>  <Gold.PLP.PLP>  (86) 
-47.6744

>  <Gold.PLP.ligand.clash>  (86) 
0.0000

>  <Gold.PLP.ligand.torsion>  (86) 
0.0091

>  <Gold.PLP.part.buried>  (86) 
-7.3578

>  <Gold.PLP.part.hbond>  (86) 
-0.5127

>  <Gold.PLP.part.metal>  (86) 
0.0000

>  <Gold.PLP.part.nonpolar>  (86) 
-40.3098

>  <Gold.PLP.part.repulsive>  (86) 
0.1684

>  <Gold.Protein.RotatedAtoms>  (86) 


>  <Gold.Protein.RotatedTorsions>  (86) 


>  <Gold.Protein.RotatedWaterAtoms>  (86) 


>  <Gold.Version>  (86) 
5.3.0

>  <PLP.Chemscore.CHOScore>  (86) 


>  <PLP.Chemscore.Hbond>  (86) 


>  <PLP.Chemscore.Internal.Correction>  (86) 


>  <PLP.Chemscore.Metal>  (86) 


>  <PLP.Fitness>  (86) 


>  <PLP.PLP>  (86) 


>  <PLP.ligand.clash>  (86) 


>  <PLP.ligand.torsion>  (86) 


>  <PLP.part.buried>  (86) 


>  <PLP.part.hbond>  (86) 


>  <PLP.part.metal>  (86) 


>  <PLP.part.nonpolar>  (86) 


>  <PLP.part.repulsive>  (86) 


>  <RMSD>  (86) 
0.30972197429

>  <Torsion>  (86) 
172.929186758

>  <TorsionO>  (86) 
24.4968065243

>  <TorsionR>  (86) 
162.574006718

>  <Version>  (86) 


>  <product>  (86) 
91|Compound_34|Compounds_3D_F|sdf|15|dock2|1

>  <rmsd>  (86) 
-1

$$$$
110|565385_49|Aromatic_carboxylic_acids_F|sdf|29|dock1|1
     RDKit          3D

 13 13  0  0  0  0  0  0  0  0999 V2000
  -10.1118  -17.9021   11.6320 C   0  0  0  0  0  0  0  0  0  0  0  0
   -9.7537  -16.5043   11.6546 N   0  0  0  0  0  0  0  0  0  0  0  0
   -8.4330  -16.1187   11.7930 C   0  0  0  0  0  0  0  0  0  0  0  0
   -7.5159  -16.9298   11.9008 O   0  0  0  0  0  0  0  0  0  0  0  0
   -8.1234  -14.6552   11.8105 C   0  0  0  0  0  0  0  0  0  0  0  0
   -9.0636  -13.6551   11.5375 C   0  0  0  0  0  0  0  0  0  0  0  0
   -8.6966  -12.3009   11.5726 C   0  0  0  0  0  0  0  0  0  0  0  0
   -7.3879  -11.9195   11.8809 C   0  0  0  0  0  0  0  0  0  0  0  0
   -6.4486  -12.9235   12.1551 C   0  0  0  0  0  0  0  0  0  0  0  0
   -6.8098  -14.2750   12.1207 C   0  0  0  0  0  0  0  0  0  0  0  0
   -4.6444  -12.5025   12.5849 Br  0  0  0  0  0  0  0  0  0  0  0  0
   -6.9476  -10.6242   11.9372 O   0  0  0  0  0  0  0  0  0  0  0  0
   -7.9020   -9.5910   11.7256 C   0  0  0  0  0  0  0  0  0  0  0  0
  1  2  1  0
  2  3  1  0
  3  4  2  0
  3  5  1  0
  5  6  2  0
  5 10  1  0
  6  7  1  0
  7  8  2  0
  8  9  1  0
  8 12  1  0
  9 10  2  0
  9 11  1  0
 12 13  1  0
M  END
>  <Gold.Gold.Protein.RotatedWaterAtoms>  (87) 


>  <Gold.Id.Protein>  (87) 


>  <Gold.PLP.Chemscore.CHOScore>  (87) 
0.0000

>  <Gold.PLP.Chemscore.Hbond>  (87) 
1.0000

>  <Gold.PLP.Chemscore.Internal.Correction>  (87) 
0.0000

>  <Gold.PLP.Chemscore.Metal>  (87) 
0.0000

>  <Gold.PLP.Fitness>  (87) 
43.9775

>  <Gold.PLP.PLP>  (87) 
-41.0517

>  <Gold.PLP.ligand.clash>  (87) 
0.0000

>  <Gold.PLP.ligand.torsion>  (87) 
0.0371

>  <Gold.PLP.part.buried>  (87) 
-3.7367

>  <Gold.PLP.part.hbond>  (87) 
-1.0000

>  <Gold.PLP.part.metal>  (87) 
0.0000

>  <Gold.PLP.part.nonpolar>  (87) 
-36.7483

>  <Gold.PLP.part.repulsive>  (87) 
0.4054

>  <Gold.Protein.RotatedAtoms>  (87) 


>  <Gold.Protein.RotatedTorsions>  (87) 


>  <Gold.Protein.RotatedWaterAtoms>  (87) 


>  <Gold.Version>  (87) 
5.3.0

>  <PLP.Chemscore.CHOScore>  (87) 


>  <PLP.Chemscore.Hbond>  (87) 


>  <PLP.Chemscore.Internal.Correction>  (87) 


>  <PLP.Chemscore.Metal>  (87) 


>  <PLP.Fitness>  (87) 


>  <PLP.PLP>  (87) 


>  <PLP.ligand.clash>  (87) 


>  <PLP.ligand.torsion>  (87) 


>  <PLP.part.buried>  (87) 


>  <PLP.part.hbond>  (87) 


>  <PLP.part.metal>  (87) 


>  <PLP.part.nonpolar>  (87) 


>  <PLP.part.repulsive>  (87) 


>  <RMSD>  (87) 
0.319376411377

>  <Torsion>  (87) 
169.460450784

>  <TorsionO>  (87) 
9.7963905484

>  <TorsionR>  (87) 
179.256841332

>  <Version>  (87) 


>  <product>  (87) 
91|Compound_34|Compounds_3D_F|sdf|15|dock2|1

>  <rmsd>  (87) 
-1

$$$$
128|137677_56|Aromatic_carboxylic_acids_F|sdf|33|dock1|1
     RDKit          3D

 11 11  0  0  0  0  0  0  0  0999 V2000
   -8.6116  -16.1544   11.8887 C   0  0  0  0  0  0  0  0  0  0  0  0
   -7.9978  -14.8484   11.9215 N   0  0  0  0  0  0  0  0  0  0  0  0
   -8.7778  -13.7008   11.8756 C   0  0  0  0  0  0  0  0  0  0  0  0
  -10.0002  -13.7896   11.8139 O   0  0  0  0  0  0  0  0  0  0  0  0
   -8.0808  -12.3609   11.9017 C   0  0  0  0  0  0  0  0  0  0  0  0
   -8.7916  -11.1851   11.5813 C   0  0  0  0  0  0  0  0  0  0  0  0
   -8.1781   -9.9267   11.5989 C   0  0  0  0  0  0  0  0  0  0  0  0
   -6.8391   -9.8089   11.9369 C   0  0  0  0  0  0  0  0  0  0  0  0
   -6.1124  -10.9502   12.2575 C   0  0  0  0  0  0  0  0  0  0  0  0
   -6.7171  -12.2196   12.2428 C   0  0  0  0  0  0  0  0  0  0  0  0
   -5.5419  -13.6455   12.7121 Br  0  0  0  0  0  0  0  0  0  0  0  0
  1  2  1  0
  2  3  1  0
  3  4  2  0
  3  5  1  0
  5  6  2  0
  5 10  1  0
  6  7  1  0
  7  8  2  0
  8  9  1  0
  9 10  2  0
 10 11  1  0
M  END
>  <Gold.Gold.Protein.RotatedWaterAtoms>  (88) 


>  <Gold.Id.Protein>  (88) 


>  <Gold.PLP.Chemscore.CHOScore>  (88) 
0.0000

>  <Gold.PLP.Chemscore.Hbond>  (88) 
1.0000

>  <Gold.PLP.Chemscore.Internal.Correction>  (88) 
0.0000

>  <Gold.PLP.Chemscore.Metal>  (88) 
0.0000

>  <Gold.PLP.Fitness>  (88) 
45.2899

>  <Gold.PLP.PLP>  (88) 
-42.4444

>  <Gold.PLP.ligand.clash>  (88) 
0.0000

>  <Gold.PLP.ligand.torsion>  (88) 
0.0772

>  <Gold.PLP.part.buried>  (88) 
-6.4690

>  <Gold.PLP.part.hbond>  (88) 
-0.6863

>  <Gold.PLP.part.metal>  (88) 
0.0000

>  <Gold.PLP.part.nonpolar>  (88) 
-34.8280

>  <Gold.PLP.part.repulsive>  (88) 
0.1963

>  <Gold.Protein.RotatedAtoms>  (88) 


>  <Gold.Protein.RotatedTorsions>  (88) 


>  <Gold.Protein.RotatedWaterAtoms>  (88) 


>  <Gold.Version>  (88) 
5.3.0

>  <PLP.Chemscore.CHOScore>  (88) 


>  <PLP.Chemscore.Hbond>  (88) 


>  <PLP.Chemscore.Internal.Correction>  (88) 


>  <PLP.Chemscore.Metal>  (88) 


>  <PLP.Fitness>  (88) 


>  <PLP.PLP>  (88) 


>  <PLP.ligand.clash>  (88) 


>  <PLP.ligand.torsion>  (88) 


>  <PLP.part.buried>  (88) 


>  <PLP.part.hbond>  (88) 


>  <PLP.part.metal>  (88) 


>  <PLP.part.nonpolar>  (88) 


>  <PLP.part.repulsive>  (88) 


>  <RMSD>  (88) 
0.428070490903

>  <Torsion>  (88) 
152.444048788

>  <TorsionO>  (88) 
39.0580871276

>  <TorsionR>  (88) 
168.497864085

>  <Version>  (88) 


>  <product>  (88) 
91|Compound_34|Compounds_3D_F|sdf|15|dock2|1

>  <rmsd>  (88) 
-1

$$$$
974|750794_1404|Aromatic_primary_amines_F|sdf|194|dock3|1
     RDKit          3D

 14 14  0  0  0  0  0  0  0  0999 V2000
  -13.6355  -18.1936    9.4145 C   0  0  0  0  0  0  0  0  0  0  0  0
  -13.2544  -19.4497   10.1732 C   0  0  0  0  0  0  0  0  0  0  0  0
  -11.8731  -19.3506   10.5383 O   0  0  0  0  0  0  0  0  0  0  0  0
  -11.6148  -18.5085   11.5823 C   0  0  0  0  0  0  0  0  0  0  0  0
  -12.3947  -18.2810   12.5004 O   0  0  0  0  0  0  0  0  0  0  0  0
  -10.3031  -17.8985   11.4902 C   0  0  0  0  0  0  0  0  0  0  0  0
   -9.1673  -18.4974   10.9931 C   0  0  0  0  0  0  0  0  0  0  0  0
   -8.1448  -17.6055   11.0758 O   0  0  0  0  0  0  0  0  0  0  0  0
   -8.7110  -16.4917   11.6237 C   0  0  0  0  0  0  0  0  0  0  0  0
   -9.9933  -16.6110   11.8915 N   0  0  0  0  0  0  0  0  0  0  0  0
   -7.9611  -15.3718   11.8549 N   0  0  0  0  0  0  0  0  0  0  0  0
   -8.5046  -14.1249   12.0676 C   0  0  0  0  0  0  0  0  0  0  0  0
   -9.6950  -13.8313   12.1035 O   0  0  0  0  0  0  0  0  0  0  0  0
   -7.4448  -13.0785   12.3021 C   0  0  0  0  0  0  0  0  0  0  0  0
  1  2  1  0
  2  3  1  0
  3  4  1  0
  4  5  2  0
  4  6  1  0
  6  7  2  0
  6 10  1  0
  7  8  1  0
  8  9  1  0
  9 10  2  0
  9 11  1  0
 11 12  1  0
 12 13  2  0
 12 14  1  0
M  END
>  <Gold.Gold.Protein.RotatedWaterAtoms>  (89) 


>  <Gold.Id.Protein>  (89) 


>  <Gold.PLP.Chemscore.CHOScore>  (89) 
0.0000

>  <Gold.PLP.Chemscore.Hbond>  (89) 
2.0000

>  <Gold.PLP.Chemscore.Internal.Correction>  (89) 
0.0053

>  <Gold.PLP.Chemscore.Metal>  (89) 
0.0000

>  <Gold.PLP.Fitness>  (89) 
36.8047

>  <Gold.PLP.PLP>  (89) 
-32.7996

>  <Gold.PLP.ligand.clash>  (89) 
0.0000

>  <Gold.PLP.ligand.torsion>  (89) 
1.0001

>  <Gold.PLP.part.buried>  (89) 
-6.5206

>  <Gold.PLP.part.hbond>  (89) 
-2.9156

>  <Gold.PLP.part.metal>  (89) 
0.0000

>  <Gold.PLP.part.nonpolar>  (89) 
-23.4080

>  <Gold.PLP.part.repulsive>  (89) 
0.3100

>  <Gold.Protein.RotatedAtoms>  (89) 


>  <Gold.Protein.RotatedTorsions>  (89) 


>  <Gold.Protein.RotatedWaterAtoms>  (89) 


>  <Gold.Version>  (89) 
5.3.0

>  <PLP.Chemscore.CHOScore>  (89) 


>  <PLP.Chemscore.Hbond>  (89) 


>  <PLP.Chemscore.Internal.Correction>  (89) 


>  <PLP.Chemscore.Metal>  (89) 


>  <PLP.Fitness>  (89) 


>  <PLP.PLP>  (89) 


>  <PLP.ligand.clash>  (89) 


>  <PLP.ligand.torsion>  (89) 


>  <PLP.part.buried>  (89) 


>  <PLP.part.hbond>  (89) 


>  <PLP.part.metal>  (89) 


>  <PLP.part.nonpolar>  (89) 


>  <PLP.part.repulsive>  (89) 


>  <RMSD>  (89) 
0.499949349045

>  <Torsion>  (89) 
159.973716791

>  <TorsionO>  (89) 
19.1052109979

>  <TorsionR>  (89) 
179.078927789

>  <Version>  (89) 


>  <product>  (89) 
91|Compound_34|Compounds_3D_F|sdf|15|dock2|1

>  <rmsd>  (89) 
-1

$$$$
1884|M3006_1781|Aromatic_primary_amines_F|sdf|361|dock3|1
     RDKit          3D

 31 34  0  0  0  0  0  0  0  0999 V2000
  -14.4210  -19.8971    8.7934 C   0  0  0  0  0  0  0  0  0  0  0  0
  -13.9762  -19.4927   10.1894 C   0  0  0  0  0  0  0  0  0  0  0  0
  -14.1356  -20.6409   11.1817 C   0  0  0  0  0  0  0  0  0  0  0  0
  -13.5197  -20.3070   12.5189 C   0  0  0  0  0  0  0  0  0  0  0  0
  -12.9307  -19.2724   12.7954 O   0  0  0  0  0  0  0  0  0  0  0  0
  -13.7110  -21.3451   13.3845 O   0  0  0  0  0  0  0  0  0  0  0  0
  -12.9425  -21.2698   14.5900 C   0  0  0  0  0  0  0  0  0  0  0  0
  -12.8849  -22.6189   15.2889 C   0  0  0  0  0  0  0  0  0  0  0  0
  -11.6552  -22.4172   16.1494 C   0  0  0  0  0  0  0  0  0  0  0  0
  -11.2420  -23.7410   16.7624 C   0  0  0  0  0  0  0  0  0  0  0  0
  -12.3024  -24.2223   17.5862 O   0  0  0  0  0  0  0  0  0  0  0  0
  -13.7888  -24.3384   16.9603 P   0  0  0  0  0  0  0  0  0  0  0  0
  -14.8775  -24.6795   17.9243 O   0  0  0  0  0  0  0  0  0  0  0  0
  -13.9839  -22.9641   16.1174 O   0  0  0  0  0  0  0  0  0  0  0  0
  -13.5991  -25.4435   15.8075 O   0  0  0  0  0  0  0  0  0  0  0  0
  -10.6922  -21.8161   15.2889 O   0  0  0  0  0  0  0  0  0  0  0  0
  -11.4338  -20.9664   14.3653 C   0  0  0  0  0  0  0  0  0  0  0  0
  -10.9052  -21.2017   13.0342 N   0  0  0  0  0  0  0  0  0  0  0  0
  -10.7814  -22.4114   12.4013 C   0  0  0  0  0  0  0  0  0  0  0  0
  -10.2640  -22.2918   11.1953 N   0  0  0  0  0  0  0  0  0  0  0  0
  -10.0274  -20.9476   11.0424 C   0  0  0  0  0  0  0  0  0  0  0  0
  -10.4203  -20.2487   12.1733 C   0  0  0  0  0  0  0  0  0  0  0  0
  -10.3338  -18.9216   12.3641 N   0  0  0  0  0  0  0  0  0  0  0  0
   -9.8057  -18.2730   11.3024 C   0  0  0  0  0  0  0  0  0  0  0  0
   -9.3808  -18.8370   10.1545 N   0  0  0  0  0  0  0  0  0  0  0  0
   -9.4895  -20.1691   10.0244 C   0  0  0  0  0  0  0  0  0  0  0  0
   -9.0330  -20.6622    8.8349 O   0  0  0  0  0  0  0  0  0  0  0  0
   -9.7222  -16.8901   11.4793 N   0  0  0  0  0  0  0  0  0  0  0  0
   -8.5796  -16.1798   11.7761 C   0  0  0  0  0  0  0  0  0  0  0  0
   -7.4445  -16.6221   11.9131 O   0  0  0  0  0  0  0  0  0  0  0  0
   -8.8524  -14.7024   11.8973 C   0  0  0  0  0  0  0  0  0  0  0  0
  1  2  1  0
  2  3  1  0
  3  4  1  0
  4  5  2  0
  4  6  1  0
  6  7  1  0
  7  8  1  0
  7 17  1  0
  8  9  1  0
  8 14  1  0
  9 10  1  0
  9 16  1  0
 10 11  1  0
 11 12  1  0
 12 13  2  0
 12 14  1  0
 12 15  1  0
 16 17  1  0
 17 18  1  0
 18 19  1  0
 18 22  1  0
 19 20  2  0
 20 21  1  0
 21 22  2  0
 21 26  1  0
 22 23  1  0
 23 24  2  0
 24 25  1  0
 24 28  1  0
 25 26  2  0
 26 27  1  0
 28 29  1  0
 29 30  2  0
 29 31  1  0
M  END
>  <Gold.Gold.Protein.RotatedWaterAtoms>  (90) 


>  <Gold.Id.Protein>  (90) 


>  <Gold.PLP.Chemscore.CHOScore>  (90) 
0.0000

>  <Gold.PLP.Chemscore.Hbond>  (90) 
1.2080

>  <Gold.PLP.Chemscore.Internal.Correction>  (90) 
0.1232

>  <Gold.PLP.Chemscore.Metal>  (90) 
0.0000

>  <Gold.PLP.Fitness>  (90) 
47.7145

>  <Gold.PLP.PLP>  (90) 
-46.0218

>  <Gold.PLP.ligand.clash>  (90) 
0.0000

>  <Gold.PLP.ligand.torsion>  (90) 
1.0272

>  <Gold.PLP.part.buried>  (90) 
-2.2958

>  <Gold.PLP.part.hbond>  (90) 
-4.0214

>  <Gold.PLP.part.metal>  (90) 
0.0000

>  <Gold.PLP.part.nonpolar>  (90) 
-41.4699

>  <Gold.PLP.part.repulsive>  (90) 
0.9524

>  <Gold.Protein.RotatedAtoms>  (90) 


>  <Gold.Protein.RotatedTorsions>  (90) 


>  <Gold.Protein.RotatedWaterAtoms>  (90) 


>  <Gold.Version>  (90) 
5.3.0

>  <PLP.Chemscore.CHOScore>  (90) 


>  <PLP.Chemscore.Hbond>  (90) 


>  <PLP.Chemscore.Internal.Correction>  (90) 


>  <PLP.Chemscore.Metal>  (90) 


>  <PLP.Fitness>  (90) 


>  <PLP.PLP>  (90) 


>  <PLP.ligand.clash>  (90) 


>  <PLP.ligand.torsion>  (90) 


>  <PLP.part.buried>  (90) 


>  <PLP.part.hbond>  (90) 


>  <PLP.part.metal>  (90) 


>  <PLP.part.nonpolar>  (90) 


>  <PLP.part.repulsive>  (90) 


>  <RMSD>  (90) 
0.291955871297

>  <Torsion>  (90) 
171.923704933

>  <TorsionO>  (90) 
6.03609353985

>  <TorsionR>  (90) 
177.959798473

>  <Version>  (90) 


>  <product>  (90) 
91|Compound_34|Compounds_3D_F|sdf|15|dock2|1

>  <rmsd>  (90) 
-1

$$$$
193|32168_281|Aromatic_primary_amines_F|sdf|39|dock6|1
     RDKit          3D

 23 25  0  0  0  0  0  0  0  0999 V2000
   -7.8439  -12.1461   11.8919 C   0  0  0  0  0  0  0  0  0  0  0  0
   -8.5691  -13.4472   11.6781 C   0  0  0  0  0  0  0  0  0  0  0  0
   -9.7886  -13.4981   11.5208 O   0  0  0  0  0  0  0  0  0  0  0  0
   -7.7264  -14.5390   11.7020 N   0  0  0  0  0  0  0  0  0  0  0  0
   -8.1889  -15.8197   11.5323 C   0  0  0  0  0  0  0  0  0  0  0  0
   -9.4747  -16.2039   11.8163 N   0  0  0  0  0  0  0  0  0  0  0  0
   -9.5964  -17.5375   11.5379 C   0  0  0  0  0  0  0  0  0  0  0  0
  -10.6643  -18.4283   11.6415 C   0  0  0  0  0  0  0  0  0  0  0  0
  -10.4051  -19.7586   11.2778 C   0  0  0  0  0  0  0  0  0  0  0  0
   -9.1530  -20.1507   10.7795 C   0  0  0  0  0  0  0  0  0  0  0  0
   -8.1017  -19.2294   10.6839 C   0  0  0  0  0  0  0  0  0  0  0  0
   -8.3349  -17.9032   11.0783 C   0  0  0  0  0  0  0  0  0  0  0  0
   -7.4773  -16.8281   11.0838 N   0  0  0  0  0  0  0  0  0  0  0  0
   -8.8530  -21.7658   10.2429 Cl  0  0  0  0  0  0  0  0  0  0  0  0
  -11.4669  -20.6323   11.3734 O   0  0  0  0  0  0  0  0  0  0  0  0
  -12.5262  -20.4408   10.5053 C   0  0  0  0  0  0  0  0  0  0  0  0
  -13.3188  -19.2846   10.5304 C   0  0  0  0  0  0  0  0  0  0  0  0
  -14.3665  -19.1344    9.6224 C   0  0  0  0  0  0  0  0  0  0  0  0
  -14.6219  -20.1279    8.6796 C   0  0  0  0  0  0  0  0  0  0  0  0
  -13.8238  -21.2756    8.6345 C   0  0  0  0  0  0  0  0  0  0  0  0
  -12.7674  -21.4342    9.5416 C   0  0  0  0  0  0  0  0  0  0  0  0
  -11.7588  -22.8458    9.4996 Cl  0  0  0  0  0  0  0  0  0  0  0  0
  -14.1988  -22.4584    7.4296 Cl  0  0  0  0  0  0  0  0  0  0  0  0
  1  2  1  0
  2  3  2  0
  2  4  1  0
  4  5  1  0
  5  6  1  0
  5 13  2  0
  6  7  1  0
  7  8  2  0
  7 12  1  0
  8  9  1  0
  9 10  2  0
  9 15  1  0
 10 11  1  0
 10 14  1  0
 11 12  2  0
 12 13  1  0
 15 16  1  0
 16 17  2  0
 16 21  1  0
 17 18  1  0
 18 19  2  0
 19 20  1  0
 20 21  2  0
 20 23  1  0
 21 22  1  0
M  END
>  <Gold.Gold.Protein.RotatedWaterAtoms>  (91) 


>  <Gold.Id.Protein>  (91) 


>  <Gold.PLP.Chemscore.CHOScore>  (91) 
0.0000

>  <Gold.PLP.Chemscore.Hbond>  (91) 
1.0000

>  <Gold.PLP.Chemscore.Internal.Correction>  (91) 
0.0086

>  <Gold.PLP.Chemscore.Metal>  (91) 
0.0000

>  <Gold.PLP.Fitness>  (91) 
50.7139

>  <Gold.PLP.PLP>  (91) 
-48.1706

>  <Gold.PLP.ligand.clash>  (91) 
0.0000

>  <Gold.PLP.ligand.torsion>  (91) 
0.2327

>  <Gold.PLP.part.buried>  (91) 
-6.5205

>  <Gold.PLP.part.hbond>  (91) 
-2.0000

>  <Gold.PLP.part.metal>  (91) 
0.0000

>  <Gold.PLP.part.nonpolar>  (91) 
-39.3857

>  <Gold.PLP.part.repulsive>  (91) 
0.3298

>  <Gold.Protein.RotatedAtoms>  (91) 


>  <Gold.Protein.RotatedTorsions>  (91) 


>  <Gold.Protein.RotatedWaterAtoms>  (91) 


>  <Gold.Version>  (91) 
5.3.0

>  <PLP.Chemscore.CHOScore>  (91) 


>  <PLP.Chemscore.Hbond>  (91) 


>  <PLP.Chemscore.Internal.Correction>  (91) 


>  <PLP.Chemscore.Metal>  (91) 


>  <PLP.Fitness>  (91) 


>  <PLP.PLP>  (91) 


>  <PLP.ligand.clash>  (91) 


>  <PLP.ligand.torsion>  (91) 


>  <PLP.part.buried>  (91) 


>  <PLP.part.hbond>  (91) 


>  <PLP.part.metal>  (91) 


>  <PLP.part.nonpolar>  (91) 


>  <PLP.part.repulsive>  (91) 


>  <RMSD>  (91) 
0.439733510035

>  <Torsion>  (91) 
177.672185574

>  <TorsionO>  (91) 
4.31728583372

>  <TorsionR>  (91) 
173.35489974

>  <Version>  (91) 


>  <product>  (91) 
91|Compound_34|Compounds_3D_F|sdf|15|dock2|1

>  <rmsd>  (91) 
-1

$$$$
48|Compound_23|Compounds_3D_F|sdf|9|dock3|1
     RDKit          3D

 11 10  0  0  0  0  0  0  0  0999 V2000
   -8.2667  -12.6041   11.5039 O   0  0  0  0  0  0  0  0  0  0  0  0
   -8.7762  -13.8237   11.7335 C   0  0  0  0  0  0  0  0  0  0  0  0
   -9.7415  -13.9513   12.4500 O   0  0  0  0  0  0  0  0  0  0  0  0
   -8.1449  -15.0361   11.0987 C   0  0  0  0  0  0  0  0  0  0  0  0
   -8.3394  -14.9838    9.6476 N   0  0  0  0  0  0  0  0  0  0  0  0
   -7.8442  -15.9639    8.8655 C   0  0  0  0  0  0  0  0  0  0  0  0
   -7.2390  -16.8890    9.3632 O   0  0  0  0  0  0  0  0  0  0  0  0
   -8.0530  -15.9077    7.3106 B   0  0  0  0  0  0  0  0  0  0  0  0
   -8.7990  -16.3021   11.6552 C   0  0  0  0  0  0  0  0  0  0  0  0
   -6.6472  -15.0554   11.4127 C   0  0  0  0  0  0  0  0  0  0  0  0
   -5.9986  -14.0007   10.7000 O   0  0  0  0  0  0  0  0  0  0  0  0
  1  2  1  0
  2  3  2  0
  2  4  1  0
  4  5  1  0
  4  9  1  0
  4 10  1  0
  5  6  1  0
  6  7  2  0
  6  8  1  0
 10 11  1  0
M  END
>  <Gold.Gold.Protein.RotatedWaterAtoms>  (92) 


>  <Gold.Id.Protein>  (92) 


>  <Gold.PLP.Chemscore.CHOScore>  (92) 
0.0000

>  <Gold.PLP.Chemscore.Hbond>  (92) 
2.9750

>  <Gold.PLP.Chemscore.Internal.Correction>  (92) 
0.0006

>  <Gold.PLP.Chemscore.Metal>  (92) 
0.0000

>  <Gold.PLP.Fitness>  (92) 
31.9542

>  <Gold.PLP.PLP>  (92) 
-23.4692

>  <Gold.PLP.ligand.clash>  (92) 
0.0000

>  <Gold.PLP.ligand.torsion>  (92) 
0.2203

>  <Gold.PLP.part.buried>  (92) 
-4.7834

>  <Gold.PLP.part.hbond>  (92) 
-4.0000

>  <Gold.PLP.part.metal>  (92) 
0.0000

>  <Gold.PLP.part.nonpolar>  (92) 
-15.0907

>  <Gold.PLP.part.repulsive>  (92) 
0.2254

>  <Gold.Protein.RotatedAtoms>  (92) 


>  <Gold.Protein.RotatedTorsions>  (92) 


>  <Gold.Protein.RotatedWaterAtoms>  (92) 


>  <Gold.Version>  (92) 
5.3.0

>  <PLP.Chemscore.CHOScore>  (92) 


>  <PLP.Chemscore.Hbond>  (92) 


>  <PLP.Chemscore.Internal.Correction>  (92) 


>  <PLP.Chemscore.Metal>  (92) 


>  <PLP.Fitness>  (92) 


>  <PLP.PLP>  (92) 


>  <PLP.ligand.clash>  (92) 


>  <PLP.ligand.torsion>  (92) 


>  <PLP.part.buried>  (92) 


>  <PLP.part.hbond>  (92) 


>  <PLP.part.metal>  (92) 


>  <PLP.part.nonpolar>  (92) 


>  <PLP.part.repulsive>  (92) 


>  <Version>  (92) 


$$$$
94|664022_40|Aromatic_carboxylic_acids_F|sdf|24|dock1|1
     RDKit          3D

 12 12  0  0  0  0  0  0  0  0999 V2000
   -8.2596  -17.1212   11.4595 C   0  0  0  0  0  0  0  0  0  0  0  0
   -7.6366  -15.8367   11.6688 N   0  0  0  0  0  0  0  0  0  0  0  0
   -8.3409  -14.6553   11.5719 C   0  0  0  0  0  0  0  0  0  0  0  0
   -9.5296  -14.5547   11.2978 O   0  0  0  0  0  0  0  0  0  0  0  0
   -7.5420  -13.4431   11.8503 C   0  0  0  0  0  0  0  0  0  0  0  0
   -8.1627  -12.1983   11.6738 C   0  0  0  0  0  0  0  0  0  0  0  0
   -7.4390  -11.0301   11.9055 C   0  0  0  0  0  0  0  0  0  0  0  0
   -6.1069  -11.0910   12.3103 C   0  0  0  0  0  0  0  0  0  0  0  0
   -5.4897  -12.3324   12.4853 C   0  0  0  0  0  0  0  0  0  0  0  0
   -6.2035  -13.5136   12.2549 C   0  0  0  0  0  0  0  0  0  0  0  0
   -5.3062  -15.1564   12.5638 Br  0  0  0  0  0  0  0  0  0  0  0  0
   -8.1960   -9.5005   11.6887 Cl  0  0  0  0  0  0  0  0  0  0  0  0
  1  2  1  0
  2  3  1  0
  3  4  2  0
  3  5  1  0
  5  6  2  0
  5 10  1  0
  6  7  1  0
  7  8  2  0
  7 12  1  0
  8  9  1  0
  9 10  2  0
 10 11  1  0
M  END
>  <Gold.Gold.Protein.RotatedWaterAtoms>  (93) 


>  <Gold.Id.Protein>  (93) 


>  <Gold.PLP.Chemscore.CHOScore>  (93) 
0.0000

>  <Gold.PLP.Chemscore.Hbond>  (93) 
0.4160

>  <Gold.PLP.Chemscore.Internal.Correction>  (93) 
0.0004

>  <Gold.PLP.Chemscore.Metal>  (93) 
0.0000

>  <Gold.PLP.Fitness>  (93) 
48.9046

>  <Gold.PLP.PLP>  (93) 
-47.6744

>  <Gold.PLP.ligand.clash>  (93) 
0.0000

>  <Gold.PLP.ligand.torsion>  (93) 
0.0091

>  <Gold.PLP.part.buried>  (93) 
-7.3578

>  <Gold.PLP.part.hbond>  (93) 
-0.5127

>  <Gold.PLP.part.metal>  (93) 
0.0000

>  <Gold.PLP.part.nonpolar>  (93) 
-40.3098

>  <Gold.PLP.part.repulsive>  (93) 
0.1684

>  <Gold.Protein.RotatedAtoms>  (93) 


>  <Gold.Protein.RotatedTorsions>  (93) 


>  <Gold.Protein.RotatedWaterAtoms>  (93) 


>  <Gold.Version>  (93) 
5.3.0

>  <PLP.Chemscore.CHOScore>  (93) 


>  <PLP.Chemscore.Hbond>  (93) 


>  <PLP.Chemscore.Internal.Correction>  (93) 


>  <PLP.Chemscore.Metal>  (93) 


>  <PLP.Fitness>  (93) 


>  <PLP.PLP>  (93) 


>  <PLP.ligand.clash>  (93) 


>  <PLP.ligand.torsion>  (93) 


>  <PLP.part.buried>  (93) 


>  <PLP.part.hbond>  (93) 


>  <PLP.part.metal>  (93) 


>  <PLP.part.nonpolar>  (93) 


>  <PLP.part.repulsive>  (93) 


>  <RMSD>  (93) 
0.30972197429

>  <Torsion>  (93) 
172.929186758

>  <TorsionO>  (93) 
24.4968065243

>  <TorsionR>  (93) 
162.574006718

>  <Version>  (93) 


>  <product>  (93) 
48|Compound_23|Compounds_3D_F|sdf|9|dock3|1

>  <rmsd>  (93) 
-1

$$$$
110|565385_49|Aromatic_carboxylic_acids_F|sdf|29|dock1|1
     RDKit          3D

 13 13  0  0  0  0  0  0  0  0999 V2000
  -10.1118  -17.9021   11.6320 C   0  0  0  0  0  0  0  0  0  0  0  0
   -9.7537  -16.5043   11.6546 N   0  0  0  0  0  0  0  0  0  0  0  0
   -8.4330  -16.1187   11.7930 C   0  0  0  0  0  0  0  0  0  0  0  0
   -7.5159  -16.9298   11.9008 O   0  0  0  0  0  0  0  0  0  0  0  0
   -8.1234  -14.6552   11.8105 C   0  0  0  0  0  0  0  0  0  0  0  0
   -9.0636  -13.6551   11.5375 C   0  0  0  0  0  0  0  0  0  0  0  0
   -8.6966  -12.3009   11.5726 C   0  0  0  0  0  0  0  0  0  0  0  0
   -7.3879  -11.9195   11.8809 C   0  0  0  0  0  0  0  0  0  0  0  0
   -6.4486  -12.9235   12.1551 C   0  0  0  0  0  0  0  0  0  0  0  0
   -6.8098  -14.2750   12.1207 C   0  0  0  0  0  0  0  0  0  0  0  0
   -4.6444  -12.5025   12.5849 Br  0  0  0  0  0  0  0  0  0  0  0  0
   -6.9476  -10.6242   11.9372 O   0  0  0  0  0  0  0  0  0  0  0  0
   -7.9020   -9.5910   11.7256 C   0  0  0  0  0  0  0  0  0  0  0  0
  1  2  1  0
  2  3  1  0
  3  4  2  0
  3  5  1  0
  5  6  2  0
  5 10  1  0
  6  7  1  0
  7  8  2  0
  8  9  1  0
  8 12  1  0
  9 10  2  0
  9 11  1  0
 12 13  1  0
M  END
>  <Gold.Gold.Protein.RotatedWaterAtoms>  (94) 


>  <Gold.Id.Protein>  (94) 


>  <Gold.PLP.Chemscore.CHOScore>  (94) 
0.0000

>  <Gold.PLP.Chemscore.Hbond>  (94) 
1.0000

>  <Gold.PLP.Chemscore.Internal.Correction>  (94) 
0.0000

>  <Gold.PLP.Chemscore.Metal>  (94) 
0.0000

>  <Gold.PLP.Fitness>  (94) 
43.9775

>  <Gold.PLP.PLP>  (94) 
-41.0517

>  <Gold.PLP.ligand.clash>  (94) 
0.0000

>  <Gold.PLP.ligand.torsion>  (94) 
0.0371

>  <Gold.PLP.part.buried>  (94) 
-3.7367

>  <Gold.PLP.part.hbond>  (94) 
-1.0000

>  <Gold.PLP.part.metal>  (94) 
0.0000

>  <Gold.PLP.part.nonpolar>  (94) 
-36.7483

>  <Gold.PLP.part.repulsive>  (94) 
0.4054

>  <Gold.Protein.RotatedAtoms>  (94) 


>  <Gold.Protein.RotatedTorsions>  (94) 


>  <Gold.Protein.RotatedWaterAtoms>  (94) 


>  <Gold.Version>  (94) 
5.3.0

>  <PLP.Chemscore.CHOScore>  (94) 


>  <PLP.Chemscore.Hbond>  (94) 


>  <PLP.Chemscore.Internal.Correction>  (94) 


>  <PLP.Chemscore.Metal>  (94) 


>  <PLP.Fitness>  (94) 


>  <PLP.PLP>  (94) 


>  <PLP.ligand.clash>  (94) 


>  <PLP.ligand.torsion>  (94) 


>  <PLP.part.buried>  (94) 


>  <PLP.part.hbond>  (94) 


>  <PLP.part.metal>  (94) 


>  <PLP.part.nonpolar>  (94) 


>  <PLP.part.repulsive>  (94) 


>  <RMSD>  (94) 
0.319376411377

>  <Torsion>  (94) 
169.460450784

>  <TorsionO>  (94) 
9.7963905484

>  <TorsionR>  (94) 
179.256841332

>  <Version>  (94) 


>  <product>  (94) 
48|Compound_23|Compounds_3D_F|sdf|9|dock3|1

>  <rmsd>  (94) 
-1

$$$$
128|137677_56|Aromatic_carboxylic_acids_F|sdf|33|dock1|1
     RDKit          3D

 11 11  0  0  0  0  0  0  0  0999 V2000
   -8.6116  -16.1544   11.8887 C   0  0  0  0  0  0  0  0  0  0  0  0
   -7.9978  -14.8484   11.9215 N   0  0  0  0  0  0  0  0  0  0  0  0
   -8.7778  -13.7008   11.8756 C   0  0  0  0  0  0  0  0  0  0  0  0
  -10.0002  -13.7896   11.8139 O   0  0  0  0  0  0  0  0  0  0  0  0
   -8.0808  -12.3609   11.9017 C   0  0  0  0  0  0  0  0  0  0  0  0
   -8.7916  -11.1851   11.5813 C   0  0  0  0  0  0  0  0  0  0  0  0
   -8.1781   -9.9267   11.5989 C   0  0  0  0  0  0  0  0  0  0  0  0
   -6.8391   -9.8089   11.9369 C   0  0  0  0  0  0  0  0  0  0  0  0
   -6.1124  -10.9502   12.2575 C   0  0  0  0  0  0  0  0  0  0  0  0
   -6.7171  -12.2196   12.2428 C   0  0  0  0  0  0  0  0  0  0  0  0
   -5.5419  -13.6455   12.7121 Br  0  0  0  0  0  0  0  0  0  0  0  0
  1  2  1  0
  2  3  1  0
  3  4  2  0
  3  5  1  0
  5  6  2  0
  5 10  1  0
  6  7  1  0
  7  8  2  0
  8  9  1  0
  9 10  2  0
 10 11  1  0
M  END
>  <Gold.Gold.Protein.RotatedWaterAtoms>  (95) 


>  <Gold.Id.Protein>  (95) 


>  <Gold.PLP.Chemscore.CHOScore>  (95) 
0.0000

>  <Gold.PLP.Chemscore.Hbond>  (95) 
1.0000

>  <Gold.PLP.Chemscore.Internal.Correction>  (95) 
0.0000

>  <Gold.PLP.Chemscore.Metal>  (95) 
0.0000

>  <Gold.PLP.Fitness>  (95) 
45.2899

>  <Gold.PLP.PLP>  (95) 
-42.4444

>  <Gold.PLP.ligand.clash>  (95) 
0.0000

>  <Gold.PLP.ligand.torsion>  (95) 
0.0772

>  <Gold.PLP.part.buried>  (95) 
-6.4690

>  <Gold.PLP.part.hbond>  (95) 
-0.6863

>  <Gold.PLP.part.metal>  (95) 
0.0000

>  <Gold.PLP.part.nonpolar>  (95) 
-34.8280

>  <Gold.PLP.part.repulsive>  (95) 
0.1963

>  <Gold.Protein.RotatedAtoms>  (95) 


>  <Gold.Protein.RotatedTorsions>  (95) 


>  <Gold.Protein.RotatedWaterAtoms>  (95) 


>  <Gold.Version>  (95) 
5.3.0

>  <PLP.Chemscore.CHOScore>  (95) 


>  <PLP.Chemscore.Hbond>  (95) 


>  <PLP.Chemscore.Internal.Correction>  (95) 


>  <PLP.Chemscore.Metal>  (95) 


>  <PLP.Fitness>  (95) 


>  <PLP.PLP>  (95) 


>  <PLP.ligand.clash>  (95) 


>  <PLP.ligand.torsion>  (95) 


>  <PLP.part.buried>  (95) 


>  <PLP.part.hbond>  (95) 


>  <PLP.part.metal>  (95) 


>  <PLP.part.nonpolar>  (95) 


>  <PLP.part.repulsive>  (95) 


>  <RMSD>  (95) 
0.428070490903

>  <Torsion>  (95) 
152.444048788

>  <TorsionO>  (95) 
39.0580871276

>  <TorsionR>  (95) 
168.497864085

>  <Version>  (95) 


>  <product>  (95) 
48|Compound_23|Compounds_3D_F|sdf|9|dock3|1

>  <rmsd>  (95) 
-1

$$$$
974|750794_1404|Aromatic_primary_amines_F|sdf|194|dock3|1
     RDKit          3D

 14 14  0  0  0  0  0  0  0  0999 V2000
  -13.6355  -18.1936    9.4145 C   0  0  0  0  0  0  0  0  0  0  0  0
  -13.2544  -19.4497   10.1732 C   0  0  0  0  0  0  0  0  0  0  0  0
  -11.8731  -19.3506   10.5383 O   0  0  0  0  0  0  0  0  0  0  0  0
  -11.6148  -18.5085   11.5823 C   0  0  0  0  0  0  0  0  0  0  0  0
  -12.3947  -18.2810   12.5004 O   0  0  0  0  0  0  0  0  0  0  0  0
  -10.3031  -17.8985   11.4902 C   0  0  0  0  0  0  0  0  0  0  0  0
   -9.1673  -18.4974   10.9931 C   0  0  0  0  0  0  0  0  0  0  0  0
   -8.1448  -17.6055   11.0758 O   0  0  0  0  0  0  0  0  0  0  0  0
   -8.7110  -16.4917   11.6237 C   0  0  0  0  0  0  0  0  0  0  0  0
   -9.9933  -16.6110   11.8915 N   0  0  0  0  0  0  0  0  0  0  0  0
   -7.9611  -15.3718   11.8549 N   0  0  0  0  0  0  0  0  0  0  0  0
   -8.5046  -14.1249   12.0676 C   0  0  0  0  0  0  0  0  0  0  0  0
   -9.6950  -13.8313   12.1035 O   0  0  0  0  0  0  0  0  0  0  0  0
   -7.4448  -13.0785   12.3021 C   0  0  0  0  0  0  0  0  0  0  0  0
  1  2  1  0
  2  3  1  0
  3  4  1  0
  4  5  2  0
  4  6  1  0
  6  7  2  0
  6 10  1  0
  7  8  1  0
  8  9  1  0
  9 10  2  0
  9 11  1  0
 11 12  1  0
 12 13  2  0
 12 14  1  0
M  END
>  <Gold.Gold.Protein.RotatedWaterAtoms>  (96) 


>  <Gold.Id.Protein>  (96) 


>  <Gold.PLP.Chemscore.CHOScore>  (96) 
0.0000

>  <Gold.PLP.Chemscore.Hbond>  (96) 
2.0000

>  <Gold.PLP.Chemscore.Internal.Correction>  (96) 
0.0053

>  <Gold.PLP.Chemscore.Metal>  (96) 
0.0000

>  <Gold.PLP.Fitness>  (96) 
36.8047

>  <Gold.PLP.PLP>  (96) 
-32.7996

>  <Gold.PLP.ligand.clash>  (96) 
0.0000

>  <Gold.PLP.ligand.torsion>  (96) 
1.0001

>  <Gold.PLP.part.buried>  (96) 
-6.5206

>  <Gold.PLP.part.hbond>  (96) 
-2.9156

>  <Gold.PLP.part.metal>  (96) 
0.0000

>  <Gold.PLP.part.nonpolar>  (96) 
-23.4080

>  <Gold.PLP.part.repulsive>  (96) 
0.3100

>  <Gold.Protein.RotatedAtoms>  (96) 


>  <Gold.Protein.RotatedTorsions>  (96) 


>  <Gold.Protein.RotatedWaterAtoms>  (96) 


>  <Gold.Version>  (96) 
5.3.0

>  <PLP.Chemscore.CHOScore>  (96) 


>  <PLP.Chemscore.Hbond>  (96) 


>  <PLP.Chemscore.Internal.Correction>  (96) 


>  <PLP.Chemscore.Metal>  (96) 


>  <PLP.Fitness>  (96) 


>  <PLP.PLP>  (96) 


>  <PLP.ligand.clash>  (96) 


>  <PLP.ligand.torsion>  (96) 


>  <PLP.part.buried>  (96) 


>  <PLP.part.hbond>  (96) 


>  <PLP.part.metal>  (96) 


>  <PLP.part.nonpolar>  (96) 


>  <PLP.part.repulsive>  (96) 


>  <RMSD>  (96) 
0.499949349045

>  <Torsion>  (96) 
159.973716791

>  <TorsionO>  (96) 
19.1052109979

>  <TorsionR>  (96) 
179.078927789

>  <Version>  (96) 


>  <product>  (96) 
48|Compound_23|Compounds_3D_F|sdf|9|dock3|1

>  <rmsd>  (96) 
-1

$$$$
1884|M3006_1781|Aromatic_primary_amines_F|sdf|361|dock3|1
     RDKit          3D

 31 34  0  0  0  0  0  0  0  0999 V2000
  -14.4210  -19.8971    8.7934 C   0  0  0  0  0  0  0  0  0  0  0  0
  -13.9762  -19.4927   10.1894 C   0  0  0  0  0  0  0  0  0  0  0  0
  -14.1356  -20.6409   11.1817 C   0  0  0  0  0  0  0  0  0  0  0  0
  -13.5197  -20.3070   12.5189 C   0  0  0  0  0  0  0  0  0  0  0  0
  -12.9307  -19.2724   12.7954 O   0  0  0  0  0  0  0  0  0  0  0  0
  -13.7110  -21.3451   13.3845 O   0  0  0  0  0  0  0  0  0  0  0  0
  -12.9425  -21.2698   14.5900 C   0  0  0  0  0  0  0  0  0  0  0  0
  -12.8849  -22.6189   15.2889 C   0  0  0  0  0  0  0  0  0  0  0  0
  -11.6552  -22.4172   16.1494 C   0  0  0  0  0  0  0  0  0  0  0  0
  -11.2420  -23.7410   16.7624 C   0  0  0  0  0  0  0  0  0  0  0  0
  -12.3024  -24.2223   17.5862 O   0  0  0  0  0  0  0  0  0  0  0  0
  -13.7888  -24.3384   16.9603 P   0  0  0  0  0  0  0  0  0  0  0  0
  -14.8775  -24.6795   17.9243 O   0  0  0  0  0  0  0  0  0  0  0  0
  -13.9839  -22.9641   16.1174 O   0  0  0  0  0  0  0  0  0  0  0  0
  -13.5991  -25.4435   15.8075 O   0  0  0  0  0  0  0  0  0  0  0  0
  -10.6922  -21.8161   15.2889 O   0  0  0  0  0  0  0  0  0  0  0  0
  -11.4338  -20.9664   14.3653 C   0  0  0  0  0  0  0  0  0  0  0  0
  -10.9052  -21.2017   13.0342 N   0  0  0  0  0  0  0  0  0  0  0  0
  -10.7814  -22.4114   12.4013 C   0  0  0  0  0  0  0  0  0  0  0  0
  -10.2640  -22.2918   11.1953 N   0  0  0  0  0  0  0  0  0  0  0  0
  -10.0274  -20.9476   11.0424 C   0  0  0  0  0  0  0  0  0  0  0  0
  -10.4203  -20.2487   12.1733 C   0  0  0  0  0  0  0  0  0  0  0  0
  -10.3338  -18.9216   12.3641 N   0  0  0  0  0  0  0  0  0  0  0  0
   -9.8057  -18.2730   11.3024 C   0  0  0  0  0  0  0  0  0  0  0  0
   -9.3808  -18.8370   10.1545 N   0  0  0  0  0  0  0  0  0  0  0  0
   -9.4895  -20.1691   10.0244 C   0  0  0  0  0  0  0  0  0  0  0  0
   -9.0330  -20.6622    8.8349 O   0  0  0  0  0  0  0  0  0  0  0  0
   -9.7222  -16.8901   11.4793 N   0  0  0  0  0  0  0  0  0  0  0  0
   -8.5796  -16.1798   11.7761 C   0  0  0  0  0  0  0  0  0  0  0  0
   -7.4445  -16.6221   11.9131 O   0  0  0  0  0  0  0  0  0  0  0  0
   -8.8524  -14.7024   11.8973 C   0  0  0  0  0  0  0  0  0  0  0  0
  1  2  1  0
  2  3  1  0
  3  4  1  0
  4  5  2  0
  4  6  1  0
  6  7  1  0
  7  8  1  0
  7 17  1  0
  8  9  1  0
  8 14  1  0
  9 10  1  0
  9 16  1  0
 10 11  1  0
 11 12  1  0
 12 13  2  0
 12 14  1  0
 12 15  1  0
 16 17  1  0
 17 18  1  0
 18 19  1  0
 18 22  1  0
 19 20  2  0
 20 21  1  0
 21 22  2  0
 21 26  1  0
 22 23  1  0
 23 24  2  0
 24 25  1  0
 24 28  1  0
 25 26  2  0
 26 27  1  0
 28 29  1  0
 29 30  2  0
 29 31  1  0
M  END
>  <Gold.Gold.Protein.RotatedWaterAtoms>  (97) 


>  <Gold.Id.Protein>  (97) 


>  <Gold.PLP.Chemscore.CHOScore>  (97) 
0.0000

>  <Gold.PLP.Chemscore.Hbond>  (97) 
1.2080

>  <Gold.PLP.Chemscore.Internal.Correction>  (97) 
0.1232

>  <Gold.PLP.Chemscore.Metal>  (97) 
0.0000

>  <Gold.PLP.Fitness>  (97) 
47.7145

>  <Gold.PLP.PLP>  (97) 
-46.0218

>  <Gold.PLP.ligand.clash>  (97) 
0.0000

>  <Gold.PLP.ligand.torsion>  (97) 
1.0272

>  <Gold.PLP.part.buried>  (97) 
-2.2958

>  <Gold.PLP.part.hbond>  (97) 
-4.0214

>  <Gold.PLP.part.metal>  (97) 
0.0000

>  <Gold.PLP.part.nonpolar>  (97) 
-41.4699

>  <Gold.PLP.part.repulsive>  (97) 
0.9524

>  <Gold.Protein.RotatedAtoms>  (97) 


>  <Gold.Protein.RotatedTorsions>  (97) 


>  <Gold.Protein.RotatedWaterAtoms>  (97) 


>  <Gold.Version>  (97) 
5.3.0

>  <PLP.Chemscore.CHOScore>  (97) 


>  <PLP.Chemscore.Hbond>  (97) 


>  <PLP.Chemscore.Internal.Correction>  (97) 


>  <PLP.Chemscore.Metal>  (97) 


>  <PLP.Fitness>  (97) 


>  <PLP.PLP>  (97) 


>  <PLP.ligand.clash>  (97) 


>  <PLP.ligand.torsion>  (97) 


>  <PLP.part.buried>  (97) 


>  <PLP.part.hbond>  (97) 


>  <PLP.part.metal>  (97) 


>  <PLP.part.nonpolar>  (97) 


>  <PLP.part.repulsive>  (97) 


>  <RMSD>  (97) 
0.291955871297

>  <Torsion>  (97) 
171.923704933

>  <TorsionO>  (97) 
6.03609353985

>  <TorsionR>  (97) 
177.959798473

>  <Version>  (97) 


>  <product>  (97) 
48|Compound_23|Compounds_3D_F|sdf|9|dock3|1

>  <rmsd>  (97) 
-1

$$$$
193|32168_281|Aromatic_primary_amines_F|sdf|39|dock6|1
     RDKit          3D

 23 25  0  0  0  0  0  0  0  0999 V2000
   -7.8439  -12.1461   11.8919 C   0  0  0  0  0  0  0  0  0  0  0  0
   -8.5691  -13.4472   11.6781 C   0  0  0  0  0  0  0  0  0  0  0  0
   -9.7886  -13.4981   11.5208 O   0  0  0  0  0  0  0  0  0  0  0  0
   -7.7264  -14.5390   11.7020 N   0  0  0  0  0  0  0  0  0  0  0  0
   -8.1889  -15.8197   11.5323 C   0  0  0  0  0  0  0  0  0  0  0  0
   -9.4747  -16.2039   11.8163 N   0  0  0  0  0  0  0  0  0  0  0  0
   -9.5964  -17.5375   11.5379 C   0  0  0  0  0  0  0  0  0  0  0  0
  -10.6643  -18.4283   11.6415 C   0  0  0  0  0  0  0  0  0  0  0  0
  -10.4051  -19.7586   11.2778 C   0  0  0  0  0  0  0  0  0  0  0  0
   -9.1530  -20.1507   10.7795 C   0  0  0  0  0  0  0  0  0  0  0  0
   -8.1017  -19.2294   10.6839 C   0  0  0  0  0  0  0  0  0  0  0  0
   -8.3349  -17.9032   11.0783 C   0  0  0  0  0  0  0  0  0  0  0  0
   -7.4773  -16.8281   11.0838 N   0  0  0  0  0  0  0  0  0  0  0  0
   -8.8530  -21.7658   10.2429 Cl  0  0  0  0  0  0  0  0  0  0  0  0
  -11.4669  -20.6323   11.3734 O   0  0  0  0  0  0  0  0  0  0  0  0
  -12.5262  -20.4408   10.5053 C   0  0  0  0  0  0  0  0  0  0  0  0
  -13.3188  -19.2846   10.5304 C   0  0  0  0  0  0  0  0  0  0  0  0
  -14.3665  -19.1344    9.6224 C   0  0  0  0  0  0  0  0  0  0  0  0
  -14.6219  -20.1279    8.6796 C   0  0  0  0  0  0  0  0  0  0  0  0
  -13.8238  -21.2756    8.6345 C   0  0  0  0  0  0  0  0  0  0  0  0
  -12.7674  -21.4342    9.5416 C   0  0  0  0  0  0  0  0  0  0  0  0
  -11.7588  -22.8458    9.4996 Cl  0  0  0  0  0  0  0  0  0  0  0  0
  -14.1988  -22.4584    7.4296 Cl  0  0  0  0  0  0  0  0  0  0  0  0
  1  2  1  0
  2  3  2  0
  2  4  1  0
  4  5  1  0
  5  6  1  0
  5 13  2  0
  6  7  1  0
  7  8  2  0
  7 12  1  0
  8  9  1  0
  9 10  2  0
  9 15  1  0
 10 11  1  0
 10 14  1  0
 11 12  2  0
 12 13  1  0
 15 16  1  0
 16 17  2  0
 16 21  1  0
 17 18  1  0
 18 19  2  0
 19 20  1  0
 20 21  2  0
 20 23  1  0
 21 22  1  0
M  END
>  <Gold.Gold.Protein.RotatedWaterAtoms>  (98) 


>  <Gold.Id.Protein>  (98) 


>  <Gold.PLP.Chemscore.CHOScore>  (98) 
0.0000

>  <Gold.PLP.Chemscore.Hbond>  (98) 
1.0000

>  <Gold.PLP.Chemscore.Internal.Correction>  (98) 
0.0086

>  <Gold.PLP.Chemscore.Metal>  (98) 
0.0000

>  <Gold.PLP.Fitness>  (98) 
50.7139

>  <Gold.PLP.PLP>  (98) 
-48.1706

>  <Gold.PLP.ligand.clash>  (98) 
0.0000

>  <Gold.PLP.ligand.torsion>  (98) 
0.2327

>  <Gold.PLP.part.buried>  (98) 
-6.5205

>  <Gold.PLP.part.hbond>  (98) 
-2.0000

>  <Gold.PLP.part.metal>  (98) 
0.0000

>  <Gold.PLP.part.nonpolar>  (98) 
-39.3857

>  <Gold.PLP.part.repulsive>  (98) 
0.3298

>  <Gold.Protein.RotatedAtoms>  (98) 


>  <Gold.Protein.RotatedTorsions>  (98) 


>  <Gold.Protein.RotatedWaterAtoms>  (98) 


>  <Gold.Version>  (98) 
5.3.0

>  <PLP.Chemscore.CHOScore>  (98) 


>  <PLP.Chemscore.Hbond>  (98) 


>  <PLP.Chemscore.Internal.Correction>  (98) 


>  <PLP.Chemscore.Metal>  (98) 


>  <PLP.Fitness>  (98) 


>  <PLP.PLP>  (98) 


>  <PLP.ligand.clash>  (98) 


>  <PLP.ligand.torsion>  (98) 


>  <PLP.part.buried>  (98) 


>  <PLP.part.hbond>  (98) 


>  <PLP.part.metal>  (98) 


>  <PLP.part.nonpolar>  (98) 


>  <PLP.part.repulsive>  (98) 


>  <RMSD>  (98) 
0.439733510035

>  <Torsion>  (98) 
177.672185574

>  <TorsionO>  (98) 
4.31728583372

>  <TorsionR>  (98) 
173.35489974

>  <Version>  (98) 


>  <product>  (98) 
48|Compound_23|Compounds_3D_F|sdf|9|dock3|1

>  <rmsd>  (98) 
-1

$$$$
57|Compound_24|Compounds_3D_F|sdf|10|dock4|1
     RDKit          3D

 10  9  0  0  0  0  0  0  0  0999 V2000
   -9.4376  -13.6906   11.7886 O   0  0  0  0  0  0  0  0  0  0  0  0
   -8.2827  -14.3668   11.8808 C   0  0  0  0  0  0  0  0  0  0  0  0
   -8.2924  -15.5507   12.1254 O   0  0  0  0  0  0  0  0  0  0  0  0
   -6.9718  -13.6507   11.6802 C   0  0  0  0  0  0  0  0  0  0  0  0
   -7.1623  -12.1549   11.9413 C   0  0  0  0  0  0  0  0  0  0  0  0
   -5.9305  -14.2096   12.6519 C   0  0  0  0  0  0  0  0  0  0  0  0
   -4.8870  -14.9111   11.8993 N   0  0  0  0  0  0  0  0  0  0  0  0
   -4.7248  -16.2406   12.0524 C   0  0  0  0  0  0  0  0  0  0  0  0
   -5.4424  -16.8552   12.8121 O   0  0  0  0  0  0  0  0  0  0  0  0
   -3.6069  -16.9921   11.2462 B   0  0  0  0  0  0  0  0  0  0  0  0
  1  2  1  0
  2  3  2  0
  2  4  1  0
  4  5  1  0
  4  6  1  0
  6  7  1  0
  7  8  1  0
  8  9  2  0
  8 10  1  0
M  END
>  <Gold.Gold.Protein.RotatedWaterAtoms>  (99) 


>  <Gold.Id.Protein>  (99) 


>  <Gold.PLP.Chemscore.CHOScore>  (99) 
0.0000

>  <Gold.PLP.Chemscore.Hbond>  (99) 
2.0000

>  <Gold.PLP.Chemscore.Internal.Correction>  (99) 
0.0011

>  <Gold.PLP.Chemscore.Metal>  (99) 
0.0000

>  <Gold.PLP.Fitness>  (99) 
32.3758

>  <Gold.PLP.PLP>  (99) 
-29.1490

>  <Gold.PLP.ligand.clash>  (99) 
0.0242

>  <Gold.PLP.ligand.torsion>  (99) 
1.3750

>  <Gold.PLP.part.buried>  (99) 
-7.3991

>  <Gold.PLP.part.hbond>  (99) 
-2.4444

>  <Gold.PLP.part.metal>  (99) 
0.0000

>  <Gold.PLP.part.nonpolar>  (99) 
-19.8778

>  <Gold.PLP.part.repulsive>  (99) 
0.2209

>  <Gold.Protein.RotatedAtoms>  (99) 


>  <Gold.Protein.RotatedTorsions>  (99) 


>  <Gold.Protein.RotatedWaterAtoms>  (99) 


>  <Gold.Version>  (99) 
5.3.0

>  <PLP.Chemscore.CHOScore>  (99) 


>  <PLP.Chemscore.Hbond>  (99) 


>  <PLP.Chemscore.Internal.Correction>  (99) 


>  <PLP.Chemscore.Metal>  (99) 


>  <PLP.Fitness>  (99) 


>  <PLP.PLP>  (99) 


>  <PLP.ligand.clash>  (99) 


>  <PLP.ligand.torsion>  (99) 


>  <PLP.part.buried>  (99) 


>  <PLP.part.hbond>  (99) 


>  <PLP.part.metal>  (99) 


>  <PLP.part.nonpolar>  (99) 


>  <PLP.part.repulsive>  (99) 


>  <Version>  (99) 


$$$$
94|664022_40|Aromatic_carboxylic_acids_F|sdf|24|dock1|1
     RDKit          3D

 12 12  0  0  0  0  0  0  0  0999 V2000
   -8.2596  -17.1212   11.4595 C   0  0  0  0  0  0  0  0  0  0  0  0
   -7.6366  -15.8367   11.6688 N   0  0  0  0  0  0  0  0  0  0  0  0
   -8.3409  -14.6553   11.5719 C   0  0  0  0  0  0  0  0  0  0  0  0
   -9.5296  -14.5547   11.2978 O   0  0  0  0  0  0  0  0  0  0  0  0
   -7.5420  -13.4431   11.8503 C   0  0  0  0  0  0  0  0  0  0  0  0
   -8.1627  -12.1983   11.6738 C   0  0  0  0  0  0  0  0  0  0  0  0
   -7.4390  -11.0301   11.9055 C   0  0  0  0  0  0  0  0  0  0  0  0
   -6.1069  -11.0910   12.3103 C   0  0  0  0  0  0  0  0  0  0  0  0
   -5.4897  -12.3324   12.4853 C   0  0  0  0  0  0  0  0  0  0  0  0
   -6.2035  -13.5136   12.2549 C   0  0  0  0  0  0  0  0  0  0  0  0
   -5.3062  -15.1564   12.5638 Br  0  0  0  0  0  0  0  0  0  0  0  0
   -8.1960   -9.5005   11.6887 Cl  0  0  0  0  0  0  0  0  0  0  0  0
  1  2  1  0
  2  3  1  0
  3  4  2  0
  3  5  1  0
  5  6  2  0
  5 10  1  0
  6  7  1  0
  7  8  2  0
  7 12  1  0
  8  9  1  0
  9 10  2  0
 10 11  1  0
M  END
>  <Gold.Gold.Protein.RotatedWaterAtoms>  (100) 


>  <Gold.Id.Protein>  (100) 


>  <Gold.PLP.Chemscore.CHOScore>  (100) 
0.0000

>  <Gold.PLP.Chemscore.Hbond>  (100) 
0.4160

>  <Gold.PLP.Chemscore.Internal.Correction>  (100) 
0.0004

>  <Gold.PLP.Chemscore.Metal>  (100) 
0.0000

>  <Gold.PLP.Fitness>  (100) 
48.9046

>  <Gold.PLP.PLP>  (100) 
-47.6744

>  <Gold.PLP.ligand.clash>  (100) 
0.0000

>  <Gold.PLP.ligand.torsion>  (100) 
0.0091

>  <Gold.PLP.part.buried>  (100) 
-7.3578

>  <Gold.PLP.part.hbond>  (100) 
-0.5127

>  <Gold.PLP.part.metal>  (100) 
0.0000

>  <Gold.PLP.part.nonpolar>  (100) 
-40.3098

>  <Gold.PLP.part.repulsive>  (100) 
0.1684

>  <Gold.Protein.RotatedAtoms>  (100) 


>  <Gold.Protein.RotatedTorsions>  (100) 


>  <Gold.Protein.RotatedWaterAtoms>  (100) 


>  <Gold.Version>  (100) 
5.3.0

>  <PLP.Chemscore.CHOScore>  (100) 


>  <PLP.Chemscore.Hbond>  (100) 


>  <PLP.Chemscore.Internal.Correction>  (100) 


>  <PLP.Chemscore.Metal>  (100) 


>  <PLP.Fitness>  (100) 


>  <PLP.PLP>  (100) 


>  <PLP.ligand.clash>  (100) 


>  <PLP.ligand.torsion>  (100) 


>  <PLP.part.buried>  (100) 


>  <PLP.part.hbond>  (100) 


>  <PLP.part.metal>  (100) 


>  <PLP.part.nonpolar>  (100) 


>  <PLP.part.repulsive>  (100) 


>  <RMSD>  (100) 
0.30972197429

>  <Torsion>  (100) 
172.929186758

>  <TorsionO>  (100) 
24.4968065243

>  <TorsionR>  (100) 
162.574006718

>  <Version>  (100) 


>  <product>  (100) 
57|Compound_24|Compounds_3D_F|sdf|10|dock4|1

>  <rmsd>  (100) 
-1

$$$$
110|565385_49|Aromatic_carboxylic_acids_F|sdf|29|dock1|1
     RDKit          3D

 13 13  0  0  0  0  0  0  0  0999 V2000
  -10.1118  -17.9021   11.6320 C   0  0  0  0  0  0  0  0  0  0  0  0
   -9.7537  -16.5043   11.6546 N   0  0  0  0  0  0  0  0  0  0  0  0
   -8.4330  -16.1187   11.7930 C   0  0  0  0  0  0  0  0  0  0  0  0
   -7.5159  -16.9298   11.9008 O   0  0  0  0  0  0  0  0  0  0  0  0
   -8.1234  -14.6552   11.8105 C   0  0  0  0  0  0  0  0  0  0  0  0
   -9.0636  -13.6551   11.5375 C   0  0  0  0  0  0  0  0  0  0  0  0
   -8.6966  -12.3009   11.5726 C   0  0  0  0  0  0  0  0  0  0  0  0
   -7.3879  -11.9195   11.8809 C   0  0  0  0  0  0  0  0  0  0  0  0
   -6.4486  -12.9235   12.1551 C   0  0  0  0  0  0  0  0  0  0  0  0
   -6.8098  -14.2750   12.1207 C   0  0  0  0  0  0  0  0  0  0  0  0
   -4.6444  -12.5025   12.5849 Br  0  0  0  0  0  0  0  0  0  0  0  0
   -6.9476  -10.6242   11.9372 O   0  0  0  0  0  0  0  0  0  0  0  0
   -7.9020   -9.5910   11.7256 C   0  0  0  0  0  0  0  0  0  0  0  0
  1  2  1  0
  2  3  1  0
  3  4  2  0
  3  5  1  0
  5  6  2  0
  5 10  1  0
  6  7  1  0
  7  8  2  0
  8  9  1  0
  8 12  1  0
  9 10  2  0
  9 11  1  0
 12 13  1  0
M  END
>  <Gold.Gold.Protein.RotatedWaterAtoms>  (101) 


>  <Gold.Id.Protein>  (101) 


>  <Gold.PLP.Chemscore.CHOScore>  (101) 
0.0000

>  <Gold.PLP.Chemscore.Hbond>  (101) 
1.0000

>  <Gold.PLP.Chemscore.Internal.Correction>  (101) 
0.0000

>  <Gold.PLP.Chemscore.Metal>  (101) 
0.0000

>  <Gold.PLP.Fitness>  (101) 
43.9775

>  <Gold.PLP.PLP>  (101) 
-41.0517

>  <Gold.PLP.ligand.clash>  (101) 
0.0000

>  <Gold.PLP.ligand.torsion>  (101) 
0.0371

>  <Gold.PLP.part.buried>  (101) 
-3.7367

>  <Gold.PLP.part.hbond>  (101) 
-1.0000

>  <Gold.PLP.part.metal>  (101) 
0.0000

>  <Gold.PLP.part.nonpolar>  (101) 
-36.7483

>  <Gold.PLP.part.repulsive>  (101) 
0.4054

>  <Gold.Protein.RotatedAtoms>  (101) 


>  <Gold.Protein.RotatedTorsions>  (101) 


>  <Gold.Protein.RotatedWaterAtoms>  (101) 


>  <Gold.Version>  (101) 
5.3.0

>  <PLP.Chemscore.CHOScore>  (101) 


>  <PLP.Chemscore.Hbond>  (101) 


>  <PLP.Chemscore.Internal.Correction>  (101) 


>  <PLP.Chemscore.Metal>  (101) 


>  <PLP.Fitness>  (101) 


>  <PLP.PLP>  (101) 


>  <PLP.ligand.clash>  (101) 


>  <PLP.ligand.torsion>  (101) 


>  <PLP.part.buried>  (101) 


>  <PLP.part.hbond>  (101) 


>  <PLP.part.metal>  (101) 


>  <PLP.part.nonpolar>  (101) 


>  <PLP.part.repulsive>  (101) 


>  <RMSD>  (101) 
0.319376411377

>  <Torsion>  (101) 
169.460450784

>  <TorsionO>  (101) 
9.7963905484

>  <TorsionR>  (101) 
179.256841332

>  <Version>  (101) 


>  <product>  (101) 
57|Compound_24|Compounds_3D_F|sdf|10|dock4|1

>  <rmsd>  (101) 
-1

$$$$
128|137677_56|Aromatic_carboxylic_acids_F|sdf|33|dock1|1
     RDKit          3D

 11 11  0  0  0  0  0  0  0  0999 V2000
   -8.6116  -16.1544   11.8887 C   0  0  0  0  0  0  0  0  0  0  0  0
   -7.9978  -14.8484   11.9215 N   0  0  0  0  0  0  0  0  0  0  0  0
   -8.7778  -13.7008   11.8756 C   0  0  0  0  0  0  0  0  0  0  0  0
  -10.0002  -13.7896   11.8139 O   0  0  0  0  0  0  0  0  0  0  0  0
   -8.0808  -12.3609   11.9017 C   0  0  0  0  0  0  0  0  0  0  0  0
   -8.7916  -11.1851   11.5813 C   0  0  0  0  0  0  0  0  0  0  0  0
   -8.1781   -9.9267   11.5989 C   0  0  0  0  0  0  0  0  0  0  0  0
   -6.8391   -9.8089   11.9369 C   0  0  0  0  0  0  0  0  0  0  0  0
   -6.1124  -10.9502   12.2575 C   0  0  0  0  0  0  0  0  0  0  0  0
   -6.7171  -12.2196   12.2428 C   0  0  0  0  0  0  0  0  0  0  0  0
   -5.5419  -13.6455   12.7121 Br  0  0  0  0  0  0  0  0  0  0  0  0
  1  2  1  0
  2  3  1  0
  3  4  2  0
  3  5  1  0
  5  6  2  0
  5 10  1  0
  6  7  1  0
  7  8  2  0
  8  9  1  0
  9 10  2  0
 10 11  1  0
M  END
>  <Gold.Gold.Protein.RotatedWaterAtoms>  (102) 


>  <Gold.Id.Protein>  (102) 


>  <Gold.PLP.Chemscore.CHOScore>  (102) 
0.0000

>  <Gold.PLP.Chemscore.Hbond>  (102) 
1.0000

>  <Gold.PLP.Chemscore.Internal.Correction>  (102) 
0.0000

>  <Gold.PLP.Chemscore.Metal>  (102) 
0.0000

>  <Gold.PLP.Fitness>  (102) 
45.2899

>  <Gold.PLP.PLP>  (102) 
-42.4444

>  <Gold.PLP.ligand.clash>  (102) 
0.0000

>  <Gold.PLP.ligand.torsion>  (102) 
0.0772

>  <Gold.PLP.part.buried>  (102) 
-6.4690

>  <Gold.PLP.part.hbond>  (102) 
-0.6863

>  <Gold.PLP.part.metal>  (102) 
0.0000

>  <Gold.PLP.part.nonpolar>  (102) 
-34.8280

>  <Gold.PLP.part.repulsive>  (102) 
0.1963

>  <Gold.Protein.RotatedAtoms>  (102) 


>  <Gold.Protein.RotatedTorsions>  (102) 


>  <Gold.Protein.RotatedWaterAtoms>  (102) 


>  <Gold.Version>  (102) 
5.3.0

>  <PLP.Chemscore.CHOScore>  (102) 


>  <PLP.Chemscore.Hbond>  (102) 


>  <PLP.Chemscore.Internal.Correction>  (102) 


>  <PLP.Chemscore.Metal>  (102) 


>  <PLP.Fitness>  (102) 


>  <PLP.PLP>  (102) 


>  <PLP.ligand.clash>  (102) 


>  <PLP.ligand.torsion>  (102) 


>  <PLP.part.buried>  (102) 


>  <PLP.part.hbond>  (102) 


>  <PLP.part.metal>  (102) 


>  <PLP.part.nonpolar>  (102) 


>  <PLP.part.repulsive>  (102) 


>  <RMSD>  (102) 
0.428070490903

>  <Torsion>  (102) 
152.444048788

>  <TorsionO>  (102) 
39.0580871276

>  <TorsionR>  (102) 
168.497864085

>  <Version>  (102) 


>  <product>  (102) 
57|Compound_24|Compounds_3D_F|sdf|10|dock4|1

>  <rmsd>  (102) 
-1

$$$$
974|750794_1404|Aromatic_primary_amines_F|sdf|194|dock3|1
     RDKit          3D

 14 14  0  0  0  0  0  0  0  0999 V2000
  -13.6355  -18.1936    9.4145 C   0  0  0  0  0  0  0  0  0  0  0  0
  -13.2544  -19.4497   10.1732 C   0  0  0  0  0  0  0  0  0  0  0  0
  -11.8731  -19.3506   10.5383 O   0  0  0  0  0  0  0  0  0  0  0  0
  -11.6148  -18.5085   11.5823 C   0  0  0  0  0  0  0  0  0  0  0  0
  -12.3947  -18.2810   12.5004 O   0  0  0  0  0  0  0  0  0  0  0  0
  -10.3031  -17.8985   11.4902 C   0  0  0  0  0  0  0  0  0  0  0  0
   -9.1673  -18.4974   10.9931 C   0  0  0  0  0  0  0  0  0  0  0  0
   -8.1448  -17.6055   11.0758 O   0  0  0  0  0  0  0  0  0  0  0  0
   -8.7110  -16.4917   11.6237 C   0  0  0  0  0  0  0  0  0  0  0  0
   -9.9933  -16.6110   11.8915 N   0  0  0  0  0  0  0  0  0  0  0  0
   -7.9611  -15.3718   11.8549 N   0  0  0  0  0  0  0  0  0  0  0  0
   -8.5046  -14.1249   12.0676 C   0  0  0  0  0  0  0  0  0  0  0  0
   -9.6950  -13.8313   12.1035 O   0  0  0  0  0  0  0  0  0  0  0  0
   -7.4448  -13.0785   12.3021 C   0  0  0  0  0  0  0  0  0  0  0  0
  1  2  1  0
  2  3  1  0
  3  4  1  0
  4  5  2  0
  4  6  1  0
  6  7  2  0
  6 10  1  0
  7  8  1  0
  8  9  1  0
  9 10  2  0
  9 11  1  0
 11 12  1  0
 12 13  2  0
 12 14  1  0
M  END
>  <Gold.Gold.Protein.RotatedWaterAtoms>  (103) 


>  <Gold.Id.Protein>  (103) 


>  <Gold.PLP.Chemscore.CHOScore>  (103) 
0.0000

>  <Gold.PLP.Chemscore.Hbond>  (103) 
2.0000

>  <Gold.PLP.Chemscore.Internal.Correction>  (103) 
0.0053

>  <Gold.PLP.Chemscore.Metal>  (103) 
0.0000

>  <Gold.PLP.Fitness>  (103) 
36.8047

>  <Gold.PLP.PLP>  (103) 
-32.7996

>  <Gold.PLP.ligand.clash>  (103) 
0.0000

>  <Gold.PLP.ligand.torsion>  (103) 
1.0001

>  <Gold.PLP.part.buried>  (103) 
-6.5206

>  <Gold.PLP.part.hbond>  (103) 
-2.9156

>  <Gold.PLP.part.metal>  (103) 
0.0000

>  <Gold.PLP.part.nonpolar>  (103) 
-23.4080

>  <Gold.PLP.part.repulsive>  (103) 
0.3100

>  <Gold.Protein.RotatedAtoms>  (103) 


>  <Gold.Protein.RotatedTorsions>  (103) 


>  <Gold.Protein.RotatedWaterAtoms>  (103) 


>  <Gold.Version>  (103) 
5.3.0

>  <PLP.Chemscore.CHOScore>  (103) 


>  <PLP.Chemscore.Hbond>  (103) 


>  <PLP.Chemscore.Internal.Correction>  (103) 


>  <PLP.Chemscore.Metal>  (103) 


>  <PLP.Fitness>  (103) 


>  <PLP.PLP>  (103) 


>  <PLP.ligand.clash>  (103) 


>  <PLP.ligand.torsion>  (103) 


>  <PLP.part.buried>  (103) 


>  <PLP.part.hbond>  (103) 


>  <PLP.part.metal>  (103) 


>  <PLP.part.nonpolar>  (103) 


>  <PLP.part.repulsive>  (103) 


>  <RMSD>  (103) 
0.499949349045

>  <Torsion>  (103) 
159.973716791

>  <TorsionO>  (103) 
19.1052109979

>  <TorsionR>  (103) 
179.078927789

>  <Version>  (103) 


>  <product>  (103) 
57|Compound_24|Compounds_3D_F|sdf|10|dock4|1

>  <rmsd>  (103) 
-1

$$$$
1884|M3006_1781|Aromatic_primary_amines_F|sdf|361|dock3|1
     RDKit          3D

 31 34  0  0  0  0  0  0  0  0999 V2000
  -14.4210  -19.8971    8.7934 C   0  0  0  0  0  0  0  0  0  0  0  0
  -13.9762  -19.4927   10.1894 C   0  0  0  0  0  0  0  0  0  0  0  0
  -14.1356  -20.6409   11.1817 C   0  0  0  0  0  0  0  0  0  0  0  0
  -13.5197  -20.3070   12.5189 C   0  0  0  0  0  0  0  0  0  0  0  0
  -12.9307  -19.2724   12.7954 O   0  0  0  0  0  0  0  0  0  0  0  0
  -13.7110  -21.3451   13.3845 O   0  0  0  0  0  0  0  0  0  0  0  0
  -12.9425  -21.2698   14.5900 C   0  0  0  0  0  0  0  0  0  0  0  0
  -12.8849  -22.6189   15.2889 C   0  0  0  0  0  0  0  0  0  0  0  0
  -11.6552  -22.4172   16.1494 C   0  0  0  0  0  0  0  0  0  0  0  0
  -11.2420  -23.7410   16.7624 C   0  0  0  0  0  0  0  0  0  0  0  0
  -12.3024  -24.2223   17.5862 O   0  0  0  0  0  0  0  0  0  0  0  0
  -13.7888  -24.3384   16.9603 P   0  0  0  0  0  0  0  0  0  0  0  0
  -14.8775  -24.6795   17.9243 O   0  0  0  0  0  0  0  0  0  0  0  0
  -13.9839  -22.9641   16.1174 O   0  0  0  0  0  0  0  0  0  0  0  0
  -13.5991  -25.4435   15.8075 O   0  0  0  0  0  0  0  0  0  0  0  0
  -10.6922  -21.8161   15.2889 O   0  0  0  0  0  0  0  0  0  0  0  0
  -11.4338  -20.9664   14.3653 C   0  0  0  0  0  0  0  0  0  0  0  0
  -10.9052  -21.2017   13.0342 N   0  0  0  0  0  0  0  0  0  0  0  0
  -10.7814  -22.4114   12.4013 C   0  0  0  0  0  0  0  0  0  0  0  0
  -10.2640  -22.2918   11.1953 N   0  0  0  0  0  0  0  0  0  0  0  0
  -10.0274  -20.9476   11.0424 C   0  0  0  0  0  0  0  0  0  0  0  0
  -10.4203  -20.2487   12.1733 C   0  0  0  0  0  0  0  0  0  0  0  0
  -10.3338  -18.9216   12.3641 N   0  0  0  0  0  0  0  0  0  0  0  0
   -9.8057  -18.2730   11.3024 C   0  0  0  0  0  0  0  0  0  0  0  0
   -9.3808  -18.8370   10.1545 N   0  0  0  0  0  0  0  0  0  0  0  0
   -9.4895  -20.1691   10.0244 C   0  0  0  0  0  0  0  0  0  0  0  0
   -9.0330  -20.6622    8.8349 O   0  0  0  0  0  0  0  0  0  0  0  0
   -9.7222  -16.8901   11.4793 N   0  0  0  0  0  0  0  0  0  0  0  0
   -8.5796  -16.1798   11.7761 C   0  0  0  0  0  0  0  0  0  0  0  0
   -7.4445  -16.6221   11.9131 O   0  0  0  0  0  0  0  0  0  0  0  0
   -8.8524  -14.7024   11.8973 C   0  0  0  0  0  0  0  0  0  0  0  0
  1  2  1  0
  2  3  1  0
  3  4  1  0
  4  5  2  0
  4  6  1  0
  6  7  1  0
  7  8  1  0
  7 17  1  0
  8  9  1  0
  8 14  1  0
  9 10  1  0
  9 16  1  0
 10 11  1  0
 11 12  1  0
 12 13  2  0
 12 14  1  0
 12 15  1  0
 16 17  1  0
 17 18  1  0
 18 19  1  0
 18 22  1  0
 19 20  2  0
 20 21  1  0
 21 22  2  0
 21 26  1  0
 22 23  1  0
 23 24  2  0
 24 25  1  0
 24 28  1  0
 25 26  2  0
 26 27  1  0
 28 29  1  0
 29 30  2  0
 29 31  1  0
M  END
>  <Gold.Gold.Protein.RotatedWaterAtoms>  (104) 


>  <Gold.Id.Protein>  (104) 


>  <Gold.PLP.Chemscore.CHOScore>  (104) 
0.0000

>  <Gold.PLP.Chemscore.Hbond>  (104) 
1.2080

>  <Gold.PLP.Chemscore.Internal.Correction>  (104) 
0.1232

>  <Gold.PLP.Chemscore.Metal>  (104) 
0.0000

>  <Gold.PLP.Fitness>  (104) 
47.7145

>  <Gold.PLP.PLP>  (104) 
-46.0218

>  <Gold.PLP.ligand.clash>  (104) 
0.0000

>  <Gold.PLP.ligand.torsion>  (104) 
1.0272

>  <Gold.PLP.part.buried>  (104) 
-2.2958

>  <Gold.PLP.part.hbond>  (104) 
-4.0214

>  <Gold.PLP.part.metal>  (104) 
0.0000

>  <Gold.PLP.part.nonpolar>  (104) 
-41.4699

>  <Gold.PLP.part.repulsive>  (104) 
0.9524

>  <Gold.Protein.RotatedAtoms>  (104) 


>  <Gold.Protein.RotatedTorsions>  (104) 


>  <Gold.Protein.RotatedWaterAtoms>  (104) 


>  <Gold.Version>  (104) 
5.3.0

>  <PLP.Chemscore.CHOScore>  (104) 


>  <PLP.Chemscore.Hbond>  (104) 


>  <PLP.Chemscore.Internal.Correction>  (104) 


>  <PLP.Chemscore.Metal>  (104) 


>  <PLP.Fitness>  (104) 


>  <PLP.PLP>  (104) 


>  <PLP.ligand.clash>  (104) 


>  <PLP.ligand.torsion>  (104) 


>  <PLP.part.buried>  (104) 


>  <PLP.part.hbond>  (104) 


>  <PLP.part.metal>  (104) 


>  <PLP.part.nonpolar>  (104) 


>  <PLP.part.repulsive>  (104) 


>  <RMSD>  (104) 
0.291955871297

>  <Torsion>  (104) 
171.923704933

>  <TorsionO>  (104) 
6.03609353985

>  <TorsionR>  (104) 
177.959798473

>  <Version>  (104) 


>  <product>  (104) 
57|Compound_24|Compounds_3D_F|sdf|10|dock4|1

>  <rmsd>  (104) 
-1

$$$$
193|32168_281|Aromatic_primary_amines_F|sdf|39|dock6|1
     RDKit          3D

 23 25  0  0  0  0  0  0  0  0999 V2000
   -7.8439  -12.1461   11.8919 C   0  0  0  0  0  0  0  0  0  0  0  0
   -8.5691  -13.4472   11.6781 C   0  0  0  0  0  0  0  0  0  0  0  0
   -9.7886  -13.4981   11.5208 O   0  0  0  0  0  0  0  0  0  0  0  0
   -7.7264  -14.5390   11.7020 N   0  0  0  0  0  0  0  0  0  0  0  0
   -8.1889  -15.8197   11.5323 C   0  0  0  0  0  0  0  0  0  0  0  0
   -9.4747  -16.2039   11.8163 N   0  0  0  0  0  0  0  0  0  0  0  0
   -9.5964  -17.5375   11.5379 C   0  0  0  0  0  0  0  0  0  0  0  0
  -10.6643  -18.4283   11.6415 C   0  0  0  0  0  0  0  0  0  0  0  0
  -10.4051  -19.7586   11.2778 C   0  0  0  0  0  0  0  0  0  0  0  0
   -9.1530  -20.1507   10.7795 C   0  0  0  0  0  0  0  0  0  0  0  0
   -8.1017  -19.2294   10.6839 C   0  0  0  0  0  0  0  0  0  0  0  0
   -8.3349  -17.9032   11.0783 C   0  0  0  0  0  0  0  0  0  0  0  0
   -7.4773  -16.8281   11.0838 N   0  0  0  0  0  0  0  0  0  0  0  0
   -8.8530  -21.7658   10.2429 Cl  0  0  0  0  0  0  0  0  0  0  0  0
  -11.4669  -20.6323   11.3734 O   0  0  0  0  0  0  0  0  0  0  0  0
  -12.5262  -20.4408   10.5053 C   0  0  0  0  0  0  0  0  0  0  0  0
  -13.3188  -19.2846   10.5304 C   0  0  0  0  0  0  0  0  0  0  0  0
  -14.3665  -19.1344    9.6224 C   0  0  0  0  0  0  0  0  0  0  0  0
  -14.6219  -20.1279    8.6796 C   0  0  0  0  0  0  0  0  0  0  0  0
  -13.8238  -21.2756    8.6345 C   0  0  0  0  0  0  0  0  0  0  0  0
  -12.7674  -21.4342    9.5416 C   0  0  0  0  0  0  0  0  0  0  0  0
  -11.7588  -22.8458    9.4996 Cl  0  0  0  0  0  0  0  0  0  0  0  0
  -14.1988  -22.4584    7.4296 Cl  0  0  0  0  0  0  0  0  0  0  0  0
  1  2  1  0
  2  3  2  0
  2  4  1  0
  4  5  1  0
  5  6  1  0
  5 13  2  0
  6  7  1  0
  7  8  2  0
  7 12  1  0
  8  9  1  0
  9 10  2  0
  9 15  1  0
 10 11  1  0
 10 14  1  0
 11 12  2  0
 12 13  1  0
 15 16  1  0
 16 17  2  0
 16 21  1  0
 17 18  1  0
 18 19  2  0
 19 20  1  0
 20 21  2  0
 20 23  1  0
 21 22  1  0
M  END
>  <Gold.Gold.Protein.RotatedWaterAtoms>  (105) 


>  <Gold.Id.Protein>  (105) 


>  <Gold.PLP.Chemscore.CHOScore>  (105) 
0.0000

>  <Gold.PLP.Chemscore.Hbond>  (105) 
1.0000

>  <Gold.PLP.Chemscore.Internal.Correction>  (105) 
0.0086

>  <Gold.PLP.Chemscore.Metal>  (105) 
0.0000

>  <Gold.PLP.Fitness>  (105) 
50.7139

>  <Gold.PLP.PLP>  (105) 
-48.1706

>  <Gold.PLP.ligand.clash>  (105) 
0.0000

>  <Gold.PLP.ligand.torsion>  (105) 
0.2327

>  <Gold.PLP.part.buried>  (105) 
-6.5205

>  <Gold.PLP.part.hbond>  (105) 
-2.0000

>  <Gold.PLP.part.metal>  (105) 
0.0000

>  <Gold.PLP.part.nonpolar>  (105) 
-39.3857

>  <Gold.PLP.part.repulsive>  (105) 
0.3298

>  <Gold.Protein.RotatedAtoms>  (105) 


>  <Gold.Protein.RotatedTorsions>  (105) 


>  <Gold.Protein.RotatedWaterAtoms>  (105) 


>  <Gold.Version>  (105) 
5.3.0

>  <PLP.Chemscore.CHOScore>  (105) 


>  <PLP.Chemscore.Hbond>  (105) 


>  <PLP.Chemscore.Internal.Correction>  (105) 


>  <PLP.Chemscore.Metal>  (105) 


>  <PLP.Fitness>  (105) 


>  <PLP.PLP>  (105) 


>  <PLP.ligand.clash>  (105) 


>  <PLP.ligand.torsion>  (105) 


>  <PLP.part.buried>  (105) 


>  <PLP.part.hbond>  (105) 


>  <PLP.part.metal>  (105) 


>  <PLP.part.nonpolar>  (105) 


>  <PLP.part.repulsive>  (105) 


>  <RMSD>  (105) 
0.439733510035

>  <Torsion>  (105) 
177.672185574

>  <TorsionO>  (105) 
4.31728583372

>  <TorsionR>  (105) 
173.35489974

>  <Version>  (105) 


>  <product>  (105) 
57|Compound_24|Compounds_3D_F|sdf|10|dock4|1

>  <rmsd>  (105) 
-1

$$$$
60|Compound_24|Compounds_3D_F|sdf|10|dock7|1
     RDKit          3D

 10  9  0  0  0  0  0  0  0  0999 V2000
   -9.2119  -13.9676   10.4449 O   0  0  0  0  0  0  0  0  0  0  0  0
   -8.4868  -13.7235   11.5468 C   0  0  0  0  0  0  0  0  0  0  0  0
   -9.0393  -13.5335   12.6051 O   0  0  0  0  0  0  0  0  0  0  0  0
   -6.9823  -13.6850   11.4659 C   0  0  0  0  0  0  0  0  0  0  0  0
   -6.4655  -12.4262   12.1660 C   0  0  0  0  0  0  0  0  0  0  0  0
   -6.4021  -14.9242   12.1505 C   0  0  0  0  0  0  0  0  0  0  0  0
   -5.1871  -15.3465   11.4484 N   0  0  0  0  0  0  0  0  0  0  0  0
   -4.6489  -16.5562   11.7020 C   0  0  0  0  0  0  0  0  0  0  0  0
   -5.1703  -17.2941   12.5104 O   0  0  0  0  0  0  0  0  0  0  0  0
   -3.3474  -17.0085   10.9498 B   0  0  0  0  0  0  0  0  0  0  0  0
  1  2  1  0
  2  3  2  0
  2  4  1  0
  4  5  1  0
  4  6  1  0
  6  7  1  0
  7  8  1  0
  8  9  2  0
  8 10  1  0
M  END
>  <Gold.Gold.Protein.RotatedWaterAtoms>  (106) 


>  <Gold.Id.Protein>  (106) 


>  <Gold.PLP.Chemscore.CHOScore>  (106) 
0.0000

>  <Gold.PLP.Chemscore.Hbond>  (106) 
1.9263

>  <Gold.PLP.Chemscore.Internal.Correction>  (106) 
0.0011

>  <Gold.PLP.Chemscore.Metal>  (106) 
0.0000

>  <Gold.PLP.Fitness>  (106) 
31.2246

>  <Gold.PLP.PLP>  (106) 
-26.9995

>  <Gold.PLP.ligand.clash>  (106) 
0.0000

>  <Gold.PLP.ligand.torsion>  (106) 
0.7774

>  <Gold.PLP.part.buried>  (106) 
-5.2185

>  <Gold.PLP.part.hbond>  (106) 
-3.0000

>  <Gold.PLP.part.metal>  (106) 
0.0000

>  <Gold.PLP.part.nonpolar>  (106) 
-18.2949

>  <Gold.PLP.part.repulsive>  (106) 
0.2143

>  <Gold.Protein.RotatedAtoms>  (106) 


>  <Gold.Protein.RotatedTorsions>  (106) 


>  <Gold.Protein.RotatedWaterAtoms>  (106) 


>  <Gold.Version>  (106) 
5.3.0

>  <PLP.Chemscore.CHOScore>  (106) 


>  <PLP.Chemscore.Hbond>  (106) 


>  <PLP.Chemscore.Internal.Correction>  (106) 


>  <PLP.Chemscore.Metal>  (106) 


>  <PLP.Fitness>  (106) 


>  <PLP.PLP>  (106) 


>  <PLP.ligand.clash>  (106) 


>  <PLP.ligand.torsion>  (106) 


>  <PLP.part.buried>  (106) 


>  <PLP.part.hbond>  (106) 


>  <PLP.part.metal>  (106) 


>  <PLP.part.nonpolar>  (106) 


>  <PLP.part.repulsive>  (106) 


>  <Version>  (106) 


$$$$
94|664022_40|Aromatic_carboxylic_acids_F|sdf|24|dock1|1
     RDKit          3D

 12 12  0  0  0  0  0  0  0  0999 V2000
   -8.2596  -17.1212   11.4595 C   0  0  0  0  0  0  0  0  0  0  0  0
   -7.6366  -15.8367   11.6688 N   0  0  0  0  0  0  0  0  0  0  0  0
   -8.3409  -14.6553   11.5719 C   0  0  0  0  0  0  0  0  0  0  0  0
   -9.5296  -14.5547   11.2978 O   0  0  0  0  0  0  0  0  0  0  0  0
   -7.5420  -13.4431   11.8503 C   0  0  0  0  0  0  0  0  0  0  0  0
   -8.1627  -12.1983   11.6738 C   0  0  0  0  0  0  0  0  0  0  0  0
   -7.4390  -11.0301   11.9055 C   0  0  0  0  0  0  0  0  0  0  0  0
   -6.1069  -11.0910   12.3103 C   0  0  0  0  0  0  0  0  0  0  0  0
   -5.4897  -12.3324   12.4853 C   0  0  0  0  0  0  0  0  0  0  0  0
   -6.2035  -13.5136   12.2549 C   0  0  0  0  0  0  0  0  0  0  0  0
   -5.3062  -15.1564   12.5638 Br  0  0  0  0  0  0  0  0  0  0  0  0
   -8.1960   -9.5005   11.6887 Cl  0  0  0  0  0  0  0  0  0  0  0  0
  1  2  1  0
  2  3  1  0
  3  4  2  0
  3  5  1  0
  5  6  2  0
  5 10  1  0
  6  7  1  0
  7  8  2  0
  7 12  1  0
  8  9  1  0
  9 10  2  0
 10 11  1  0
M  END
>  <Gold.Gold.Protein.RotatedWaterAtoms>  (107) 


>  <Gold.Id.Protein>  (107) 


>  <Gold.PLP.Chemscore.CHOScore>  (107) 
0.0000

>  <Gold.PLP.Chemscore.Hbond>  (107) 
0.4160

>  <Gold.PLP.Chemscore.Internal.Correction>  (107) 
0.0004

>  <Gold.PLP.Chemscore.Metal>  (107) 
0.0000

>  <Gold.PLP.Fitness>  (107) 
48.9046

>  <Gold.PLP.PLP>  (107) 
-47.6744

>  <Gold.PLP.ligand.clash>  (107) 
0.0000

>  <Gold.PLP.ligand.torsion>  (107) 
0.0091

>  <Gold.PLP.part.buried>  (107) 
-7.3578

>  <Gold.PLP.part.hbond>  (107) 
-0.5127

>  <Gold.PLP.part.metal>  (107) 
0.0000

>  <Gold.PLP.part.nonpolar>  (107) 
-40.3098

>  <Gold.PLP.part.repulsive>  (107) 
0.1684

>  <Gold.Protein.RotatedAtoms>  (107) 


>  <Gold.Protein.RotatedTorsions>  (107) 


>  <Gold.Protein.RotatedWaterAtoms>  (107) 


>  <Gold.Version>  (107) 
5.3.0

>  <PLP.Chemscore.CHOScore>  (107) 


>  <PLP.Chemscore.Hbond>  (107) 


>  <PLP.Chemscore.Internal.Correction>  (107) 


>  <PLP.Chemscore.Metal>  (107) 


>  <PLP.Fitness>  (107) 


>  <PLP.PLP>  (107) 


>  <PLP.ligand.clash>  (107) 


>  <PLP.ligand.torsion>  (107) 


>  <PLP.part.buried>  (107) 


>  <PLP.part.hbond>  (107) 


>  <PLP.part.metal>  (107) 


>  <PLP.part.nonpolar>  (107) 


>  <PLP.part.repulsive>  (107) 


>  <RMSD>  (107) 
0.30972197429

>  <Torsion>  (107) 
172.929186758

>  <TorsionO>  (107) 
24.4968065243

>  <TorsionR>  (107) 
162.574006718

>  <Version>  (107) 


>  <product>  (107) 
60|Compound_24|Compounds_3D_F|sdf|10|dock7|1

>  <rmsd>  (107) 
-1

$$$$
110|565385_49|Aromatic_carboxylic_acids_F|sdf|29|dock1|1
     RDKit          3D

 13 13  0  0  0  0  0  0  0  0999 V2000
  -10.1118  -17.9021   11.6320 C   0  0  0  0  0  0  0  0  0  0  0  0
   -9.7537  -16.5043   11.6546 N   0  0  0  0  0  0  0  0  0  0  0  0
   -8.4330  -16.1187   11.7930 C   0  0  0  0  0  0  0  0  0  0  0  0
   -7.5159  -16.9298   11.9008 O   0  0  0  0  0  0  0  0  0  0  0  0
   -8.1234  -14.6552   11.8105 C   0  0  0  0  0  0  0  0  0  0  0  0
   -9.0636  -13.6551   11.5375 C   0  0  0  0  0  0  0  0  0  0  0  0
   -8.6966  -12.3009   11.5726 C   0  0  0  0  0  0  0  0  0  0  0  0
   -7.3879  -11.9195   11.8809 C   0  0  0  0  0  0  0  0  0  0  0  0
   -6.4486  -12.9235   12.1551 C   0  0  0  0  0  0  0  0  0  0  0  0
   -6.8098  -14.2750   12.1207 C   0  0  0  0  0  0  0  0  0  0  0  0
   -4.6444  -12.5025   12.5849 Br  0  0  0  0  0  0  0  0  0  0  0  0
   -6.9476  -10.6242   11.9372 O   0  0  0  0  0  0  0  0  0  0  0  0
   -7.9020   -9.5910   11.7256 C   0  0  0  0  0  0  0  0  0  0  0  0
  1  2  1  0
  2  3  1  0
  3  4  2  0
  3  5  1  0
  5  6  2  0
  5 10  1  0
  6  7  1  0
  7  8  2  0
  8  9  1  0
  8 12  1  0
  9 10  2  0
  9 11  1  0
 12 13  1  0
M  END
>  <Gold.Gold.Protein.RotatedWaterAtoms>  (108) 


>  <Gold.Id.Protein>  (108) 


>  <Gold.PLP.Chemscore.CHOScore>  (108) 
0.0000

>  <Gold.PLP.Chemscore.Hbond>  (108) 
1.0000

>  <Gold.PLP.Chemscore.Internal.Correction>  (108) 
0.0000

>  <Gold.PLP.Chemscore.Metal>  (108) 
0.0000

>  <Gold.PLP.Fitness>  (108) 
43.9775

>  <Gold.PLP.PLP>  (108) 
-41.0517

>  <Gold.PLP.ligand.clash>  (108) 
0.0000

>  <Gold.PLP.ligand.torsion>  (108) 
0.0371

>  <Gold.PLP.part.buried>  (108) 
-3.7367

>  <Gold.PLP.part.hbond>  (108) 
-1.0000

>  <Gold.PLP.part.metal>  (108) 
0.0000

>  <Gold.PLP.part.nonpolar>  (108) 
-36.7483

>  <Gold.PLP.part.repulsive>  (108) 
0.4054

>  <Gold.Protein.RotatedAtoms>  (108) 


>  <Gold.Protein.RotatedTorsions>  (108) 


>  <Gold.Protein.RotatedWaterAtoms>  (108) 


>  <Gold.Version>  (108) 
5.3.0

>  <PLP.Chemscore.CHOScore>  (108) 


>  <PLP.Chemscore.Hbond>  (108) 


>  <PLP.Chemscore.Internal.Correction>  (108) 


>  <PLP.Chemscore.Metal>  (108) 


>  <PLP.Fitness>  (108) 


>  <PLP.PLP>  (108) 


>  <PLP.ligand.clash>  (108) 


>  <PLP.ligand.torsion>  (108) 


>  <PLP.part.buried>  (108) 


>  <PLP.part.hbond>  (108) 


>  <PLP.part.metal>  (108) 


>  <PLP.part.nonpolar>  (108) 


>  <PLP.part.repulsive>  (108) 


>  <RMSD>  (108) 
0.319376411377

>  <Torsion>  (108) 
169.460450784

>  <TorsionO>  (108) 
9.7963905484

>  <TorsionR>  (108) 
179.256841332

>  <Version>  (108) 


>  <product>  (108) 
60|Compound_24|Compounds_3D_F|sdf|10|dock7|1

>  <rmsd>  (108) 
-1

$$$$
128|137677_56|Aromatic_carboxylic_acids_F|sdf|33|dock1|1
     RDKit          3D

 11 11  0  0  0  0  0  0  0  0999 V2000
   -8.6116  -16.1544   11.8887 C   0  0  0  0  0  0  0  0  0  0  0  0
   -7.9978  -14.8484   11.9215 N   0  0  0  0  0  0  0  0  0  0  0  0
   -8.7778  -13.7008   11.8756 C   0  0  0  0  0  0  0  0  0  0  0  0
  -10.0002  -13.7896   11.8139 O   0  0  0  0  0  0  0  0  0  0  0  0
   -8.0808  -12.3609   11.9017 C   0  0  0  0  0  0  0  0  0  0  0  0
   -8.7916  -11.1851   11.5813 C   0  0  0  0  0  0  0  0  0  0  0  0
   -8.1781   -9.9267   11.5989 C   0  0  0  0  0  0  0  0  0  0  0  0
   -6.8391   -9.8089   11.9369 C   0  0  0  0  0  0  0  0  0  0  0  0
   -6.1124  -10.9502   12.2575 C   0  0  0  0  0  0  0  0  0  0  0  0
   -6.7171  -12.2196   12.2428 C   0  0  0  0  0  0  0  0  0  0  0  0
   -5.5419  -13.6455   12.7121 Br  0  0  0  0  0  0  0  0  0  0  0  0
  1  2  1  0
  2  3  1  0
  3  4  2  0
  3  5  1  0
  5  6  2  0
  5 10  1  0
  6  7  1  0
  7  8  2  0
  8  9  1  0
  9 10  2  0
 10 11  1  0
M  END
>  <Gold.Gold.Protein.RotatedWaterAtoms>  (109) 


>  <Gold.Id.Protein>  (109) 


>  <Gold.PLP.Chemscore.CHOScore>  (109) 
0.0000

>  <Gold.PLP.Chemscore.Hbond>  (109) 
1.0000

>  <Gold.PLP.Chemscore.Internal.Correction>  (109) 
0.0000

>  <Gold.PLP.Chemscore.Metal>  (109) 
0.0000

>  <Gold.PLP.Fitness>  (109) 
45.2899

>  <Gold.PLP.PLP>  (109) 
-42.4444

>  <Gold.PLP.ligand.clash>  (109) 
0.0000

>  <Gold.PLP.ligand.torsion>  (109) 
0.0772

>  <Gold.PLP.part.buried>  (109) 
-6.4690

>  <Gold.PLP.part.hbond>  (109) 
-0.6863

>  <Gold.PLP.part.metal>  (109) 
0.0000

>  <Gold.PLP.part.nonpolar>  (109) 
-34.8280

>  <Gold.PLP.part.repulsive>  (109) 
0.1963

>  <Gold.Protein.RotatedAtoms>  (109) 


>  <Gold.Protein.RotatedTorsions>  (109) 


>  <Gold.Protein.RotatedWaterAtoms>  (109) 


>  <Gold.Version>  (109) 
5.3.0

>  <PLP.Chemscore.CHOScore>  (109) 


>  <PLP.Chemscore.Hbond>  (109) 


>  <PLP.Chemscore.Internal.Correction>  (109) 


>  <PLP.Chemscore.Metal>  (109) 


>  <PLP.Fitness>  (109) 


>  <PLP.PLP>  (109) 


>  <PLP.ligand.clash>  (109) 


>  <PLP.ligand.torsion>  (109) 


>  <PLP.part.buried>  (109) 


>  <PLP.part.hbond>  (109) 


>  <PLP.part.metal>  (109) 


>  <PLP.part.nonpolar>  (109) 


>  <PLP.part.repulsive>  (109) 


>  <RMSD>  (109) 
0.428070490903

>  <Torsion>  (109) 
152.444048788

>  <TorsionO>  (109) 
39.0580871276

>  <TorsionR>  (109) 
168.497864085

>  <Version>  (109) 


>  <product>  (109) 
60|Compound_24|Compounds_3D_F|sdf|10|dock7|1

>  <rmsd>  (109) 
-1

$$$$
974|750794_1404|Aromatic_primary_amines_F|sdf|194|dock3|1
     RDKit          3D

 14 14  0  0  0  0  0  0  0  0999 V2000
  -13.6355  -18.1936    9.4145 C   0  0  0  0  0  0  0  0  0  0  0  0
  -13.2544  -19.4497   10.1732 C   0  0  0  0  0  0  0  0  0  0  0  0
  -11.8731  -19.3506   10.5383 O   0  0  0  0  0  0  0  0  0  0  0  0
  -11.6148  -18.5085   11.5823 C   0  0  0  0  0  0  0  0  0  0  0  0
  -12.3947  -18.2810   12.5004 O   0  0  0  0  0  0  0  0  0  0  0  0
  -10.3031  -17.8985   11.4902 C   0  0  0  0  0  0  0  0  0  0  0  0
   -9.1673  -18.4974   10.9931 C   0  0  0  0  0  0  0  0  0  0  0  0
   -8.1448  -17.6055   11.0758 O   0  0  0  0  0  0  0  0  0  0  0  0
   -8.7110  -16.4917   11.6237 C   0  0  0  0  0  0  0  0  0  0  0  0
   -9.9933  -16.6110   11.8915 N   0  0  0  0  0  0  0  0  0  0  0  0
   -7.9611  -15.3718   11.8549 N   0  0  0  0  0  0  0  0  0  0  0  0
   -8.5046  -14.1249   12.0676 C   0  0  0  0  0  0  0  0  0  0  0  0
   -9.6950  -13.8313   12.1035 O   0  0  0  0  0  0  0  0  0  0  0  0
   -7.4448  -13.0785   12.3021 C   0  0  0  0  0  0  0  0  0  0  0  0
  1  2  1  0
  2  3  1  0
  3  4  1  0
  4  5  2  0
  4  6  1  0
  6  7  2  0
  6 10  1  0
  7  8  1  0
  8  9  1  0
  9 10  2  0
  9 11  1  0
 11 12  1  0
 12 13  2  0
 12 14  1  0
M  END
>  <Gold.Gold.Protein.RotatedWaterAtoms>  (110) 


>  <Gold.Id.Protein>  (110) 


>  <Gold.PLP.Chemscore.CHOScore>  (110) 
0.0000

>  <Gold.PLP.Chemscore.Hbond>  (110) 
2.0000

>  <Gold.PLP.Chemscore.Internal.Correction>  (110) 
0.0053

>  <Gold.PLP.Chemscore.Metal>  (110) 
0.0000

>  <Gold.PLP.Fitness>  (110) 
36.8047

>  <Gold.PLP.PLP>  (110) 
-32.7996

>  <Gold.PLP.ligand.clash>  (110) 
0.0000

>  <Gold.PLP.ligand.torsion>  (110) 
1.0001

>  <Gold.PLP.part.buried>  (110) 
-6.5206

>  <Gold.PLP.part.hbond>  (110) 
-2.9156

>  <Gold.PLP.part.metal>  (110) 
0.0000

>  <Gold.PLP.part.nonpolar>  (110) 
-23.4080

>  <Gold.PLP.part.repulsive>  (110) 
0.3100

>  <Gold.Protein.RotatedAtoms>  (110) 


>  <Gold.Protein.RotatedTorsions>  (110) 


>  <Gold.Protein.RotatedWaterAtoms>  (110) 


>  <Gold.Version>  (110) 
5.3.0

>  <PLP.Chemscore.CHOScore>  (110) 


>  <PLP.Chemscore.Hbond>  (110) 


>  <PLP.Chemscore.Internal.Correction>  (110) 


>  <PLP.Chemscore.Metal>  (110) 


>  <PLP.Fitness>  (110) 


>  <PLP.PLP>  (110) 


>  <PLP.ligand.clash>  (110) 


>  <PLP.ligand.torsion>  (110) 


>  <PLP.part.buried>  (110) 


>  <PLP.part.hbond>  (110) 


>  <PLP.part.metal>  (110) 


>  <PLP.part.nonpolar>  (110) 


>  <PLP.part.repulsive>  (110) 


>  <RMSD>  (110) 
0.499949349045

>  <Torsion>  (110) 
159.973716791

>  <TorsionO>  (110) 
19.1052109979

>  <TorsionR>  (110) 
179.078927789

>  <Version>  (110) 


>  <product>  (110) 
60|Compound_24|Compounds_3D_F|sdf|10|dock7|1

>  <rmsd>  (110) 
-1

$$$$
1884|M3006_1781|Aromatic_primary_amines_F|sdf|361|dock3|1
     RDKit          3D

 31 34  0  0  0  0  0  0  0  0999 V2000
  -14.4210  -19.8971    8.7934 C   0  0  0  0  0  0  0  0  0  0  0  0
  -13.9762  -19.4927   10.1894 C   0  0  0  0  0  0  0  0  0  0  0  0
  -14.1356  -20.6409   11.1817 C   0  0  0  0  0  0  0  0  0  0  0  0
  -13.5197  -20.3070   12.5189 C   0  0  0  0  0  0  0  0  0  0  0  0
  -12.9307  -19.2724   12.7954 O   0  0  0  0  0  0  0  0  0  0  0  0
  -13.7110  -21.3451   13.3845 O   0  0  0  0  0  0  0  0  0  0  0  0
  -12.9425  -21.2698   14.5900 C   0  0  0  0  0  0  0  0  0  0  0  0
  -12.8849  -22.6189   15.2889 C   0  0  0  0  0  0  0  0  0  0  0  0
  -11.6552  -22.4172   16.1494 C   0  0  0  0  0  0  0  0  0  0  0  0
  -11.2420  -23.7410   16.7624 C   0  0  0  0  0  0  0  0  0  0  0  0
  -12.3024  -24.2223   17.5862 O   0  0  0  0  0  0  0  0  0  0  0  0
  -13.7888  -24.3384   16.9603 P   0  0  0  0  0  0  0  0  0  0  0  0
  -14.8775  -24.6795   17.9243 O   0  0  0  0  0  0  0  0  0  0  0  0
  -13.9839  -22.9641   16.1174 O   0  0  0  0  0  0  0  0  0  0  0  0
  -13.5991  -25.4435   15.8075 O   0  0  0  0  0  0  0  0  0  0  0  0
  -10.6922  -21.8161   15.2889 O   0  0  0  0  0  0  0  0  0  0  0  0
  -11.4338  -20.9664   14.3653 C   0  0  0  0  0  0  0  0  0  0  0  0
  -10.9052  -21.2017   13.0342 N   0  0  0  0  0  0  0  0  0  0  0  0
  -10.7814  -22.4114   12.4013 C   0  0  0  0  0  0  0  0  0  0  0  0
  -10.2640  -22.2918   11.1953 N   0  0  0  0  0  0  0  0  0  0  0  0
  -10.0274  -20.9476   11.0424 C   0  0  0  0  0  0  0  0  0  0  0  0
  -10.4203  -20.2487   12.1733 C   0  0  0  0  0  0  0  0  0  0  0  0
  -10.3338  -18.9216   12.3641 N   0  0  0  0  0  0  0  0  0  0  0  0
   -9.8057  -18.2730   11.3024 C   0  0  0  0  0  0  0  0  0  0  0  0
   -9.3808  -18.8370   10.1545 N   0  0  0  0  0  0  0  0  0  0  0  0
   -9.4895  -20.1691   10.0244 C   0  0  0  0  0  0  0  0  0  0  0  0
   -9.0330  -20.6622    8.8349 O   0  0  0  0  0  0  0  0  0  0  0  0
   -9.7222  -16.8901   11.4793 N   0  0  0  0  0  0  0  0  0  0  0  0
   -8.5796  -16.1798   11.7761 C   0  0  0  0  0  0  0  0  0  0  0  0
   -7.4445  -16.6221   11.9131 O   0  0  0  0  0  0  0  0  0  0  0  0
   -8.8524  -14.7024   11.8973 C   0  0  0  0  0  0  0  0  0  0  0  0
  1  2  1  0
  2  3  1  0
  3  4  1  0
  4  5  2  0
  4  6  1  0
  6  7  1  0
  7  8  1  0
  7 17  1  0
  8  9  1  0
  8 14  1  0
  9 10  1  0
  9 16  1  0
 10 11  1  0
 11 12  1  0
 12 13  2  0
 12 14  1  0
 12 15  1  0
 16 17  1  0
 17 18  1  0
 18 19  1  0
 18 22  1  0
 19 20  2  0
 20 21  1  0
 21 22  2  0
 21 26  1  0
 22 23  1  0
 23 24  2  0
 24 25  1  0
 24 28  1  0
 25 26  2  0
 26 27  1  0
 28 29  1  0
 29 30  2  0
 29 31  1  0
M  END
>  <Gold.Gold.Protein.RotatedWaterAtoms>  (111) 


>  <Gold.Id.Protein>  (111) 


>  <Gold.PLP.Chemscore.CHOScore>  (111) 
0.0000

>  <Gold.PLP.Chemscore.Hbond>  (111) 
1.2080

>  <Gold.PLP.Chemscore.Internal.Correction>  (111) 
0.1232

>  <Gold.PLP.Chemscore.Metal>  (111) 
0.0000

>  <Gold.PLP.Fitness>  (111) 
47.7145

>  <Gold.PLP.PLP>  (111) 
-46.0218

>  <Gold.PLP.ligand.clash>  (111) 
0.0000

>  <Gold.PLP.ligand.torsion>  (111) 
1.0272

>  <Gold.PLP.part.buried>  (111) 
-2.2958

>  <Gold.PLP.part.hbond>  (111) 
-4.0214

>  <Gold.PLP.part.metal>  (111) 
0.0000

>  <Gold.PLP.part.nonpolar>  (111) 
-41.4699

>  <Gold.PLP.part.repulsive>  (111) 
0.9524

>  <Gold.Protein.RotatedAtoms>  (111) 


>  <Gold.Protein.RotatedTorsions>  (111) 


>  <Gold.Protein.RotatedWaterAtoms>  (111) 


>  <Gold.Version>  (111) 
5.3.0

>  <PLP.Chemscore.CHOScore>  (111) 


>  <PLP.Chemscore.Hbond>  (111) 


>  <PLP.Chemscore.Internal.Correction>  (111) 


>  <PLP.Chemscore.Metal>  (111) 


>  <PLP.Fitness>  (111) 


>  <PLP.PLP>  (111) 


>  <PLP.ligand.clash>  (111) 


>  <PLP.ligand.torsion>  (111) 


>  <PLP.part.buried>  (111) 


>  <PLP.part.hbond>  (111) 


>  <PLP.part.metal>  (111) 


>  <PLP.part.nonpolar>  (111) 


>  <PLP.part.repulsive>  (111) 


>  <RMSD>  (111) 
0.291955871297

>  <Torsion>  (111) 
171.923704933

>  <TorsionO>  (111) 
6.03609353985

>  <TorsionR>  (111) 
177.959798473

>  <Version>  (111) 


>  <product>  (111) 
60|Compound_24|Compounds_3D_F|sdf|10|dock7|1

>  <rmsd>  (111) 
-1

$$$$
193|32168_281|Aromatic_primary_amines_F|sdf|39|dock6|1
     RDKit          3D

 23 25  0  0  0  0  0  0  0  0999 V2000
   -7.8439  -12.1461   11.8919 C   0  0  0  0  0  0  0  0  0  0  0  0
   -8.5691  -13.4472   11.6781 C   0  0  0  0  0  0  0  0  0  0  0  0
   -9.7886  -13.4981   11.5208 O   0  0  0  0  0  0  0  0  0  0  0  0
   -7.7264  -14.5390   11.7020 N   0  0  0  0  0  0  0  0  0  0  0  0
   -8.1889  -15.8197   11.5323 C   0  0  0  0  0  0  0  0  0  0  0  0
   -9.4747  -16.2039   11.8163 N   0  0  0  0  0  0  0  0  0  0  0  0
   -9.5964  -17.5375   11.5379 C   0  0  0  0  0  0  0  0  0  0  0  0
  -10.6643  -18.4283   11.6415 C   0  0  0  0  0  0  0  0  0  0  0  0
  -10.4051  -19.7586   11.2778 C   0  0  0  0  0  0  0  0  0  0  0  0
   -9.1530  -20.1507   10.7795 C   0  0  0  0  0  0  0  0  0  0  0  0
   -8.1017  -19.2294   10.6839 C   0  0  0  0  0  0  0  0  0  0  0  0
   -8.3349  -17.9032   11.0783 C   0  0  0  0  0  0  0  0  0  0  0  0
   -7.4773  -16.8281   11.0838 N   0  0  0  0  0  0  0  0  0  0  0  0
   -8.8530  -21.7658   10.2429 Cl  0  0  0  0  0  0  0  0  0  0  0  0
  -11.4669  -20.6323   11.3734 O   0  0  0  0  0  0  0  0  0  0  0  0
  -12.5262  -20.4408   10.5053 C   0  0  0  0  0  0  0  0  0  0  0  0
  -13.3188  -19.2846   10.5304 C   0  0  0  0  0  0  0  0  0  0  0  0
  -14.3665  -19.1344    9.6224 C   0  0  0  0  0  0  0  0  0  0  0  0
  -14.6219  -20.1279    8.6796 C   0  0  0  0  0  0  0  0  0  0  0  0
  -13.8238  -21.2756    8.6345 C   0  0  0  0  0  0  0  0  0  0  0  0
  -12.7674  -21.4342    9.5416 C   0  0  0  0  0  0  0  0  0  0  0  0
  -11.7588  -22.8458    9.4996 Cl  0  0  0  0  0  0  0  0  0  0  0  0
  -14.1988  -22.4584    7.4296 Cl  0  0  0  0  0  0  0  0  0  0  0  0
  1  2  1  0
  2  3  2  0
  2  4  1  0
  4  5  1  0
  5  6  1  0
  5 13  2  0
  6  7  1  0
  7  8  2  0
  7 12  1  0
  8  9  1  0
  9 10  2  0
  9 15  1  0
 10 11  1  0
 10 14  1  0
 11 12  2  0
 12 13  1  0
 15 16  1  0
 16 17  2  0
 16 21  1  0
 17 18  1  0
 18 19  2  0
 19 20  1  0
 20 21  2  0
 20 23  1  0
 21 22  1  0
M  END
>  <Gold.Gold.Protein.RotatedWaterAtoms>  (112) 


>  <Gold.Id.Protein>  (112) 


>  <Gold.PLP.Chemscore.CHOScore>  (112) 
0.0000

>  <Gold.PLP.Chemscore.Hbond>  (112) 
1.0000

>  <Gold.PLP.Chemscore.Internal.Correction>  (112) 
0.0086

>  <Gold.PLP.Chemscore.Metal>  (112) 
0.0000

>  <Gold.PLP.Fitness>  (112) 
50.7139

>  <Gold.PLP.PLP>  (112) 
-48.1706

>  <Gold.PLP.ligand.clash>  (112) 
0.0000

>  <Gold.PLP.ligand.torsion>  (112) 
0.2327

>  <Gold.PLP.part.buried>  (112) 
-6.5205

>  <Gold.PLP.part.hbond>  (112) 
-2.0000

>  <Gold.PLP.part.metal>  (112) 
0.0000

>  <Gold.PLP.part.nonpolar>  (112) 
-39.3857

>  <Gold.PLP.part.repulsive>  (112) 
0.3298

>  <Gold.Protein.RotatedAtoms>  (112) 


>  <Gold.Protein.RotatedTorsions>  (112) 


>  <Gold.Protein.RotatedWaterAtoms>  (112) 


>  <Gold.Version>  (112) 
5.3.0

>  <PLP.Chemscore.CHOScore>  (112) 


>  <PLP.Chemscore.Hbond>  (112) 


>  <PLP.Chemscore.Internal.Correction>  (112) 


>  <PLP.Chemscore.Metal>  (112) 


>  <PLP.Fitness>  (112) 


>  <PLP.PLP>  (112) 


>  <PLP.ligand.clash>  (112) 


>  <PLP.ligand.torsion>  (112) 


>  <PLP.part.buried>  (112) 


>  <PLP.part.hbond>  (112) 


>  <PLP.part.metal>  (112) 


>  <PLP.part.nonpolar>  (112) 


>  <PLP.part.repulsive>  (112) 


>  <RMSD>  (112) 
0.439733510035

>  <Torsion>  (112) 
177.672185574

>  <TorsionO>  (112) 
4.31728583372

>  <TorsionR>  (112) 
173.35489974

>  <Version>  (112) 


>  <product>  (112) 
60|Compound_24|Compounds_3D_F|sdf|10|dock7|1

>  <rmsd>  (112) 
-1

$$$$
80|Compound_31|Compounds_3D_F|sdf|13|dock6|1
     RDKit          3D

 10  9  0  0  0  0  0  0  0  0999 V2000
   -4.3071  -12.1153   13.0824 O   0  0  0  0  0  0  0  0  0  0  0  0
   -5.4928  -12.5269   12.6088 C   0  0  0  0  0  0  0  0  0  0  0  0
   -6.2786  -11.7234   12.1634 O   0  0  0  0  0  0  0  0  0  0  0  0
   -5.8465  -13.9918   12.6324 C   0  0  0  0  0  0  0  0  0  0  0  0
   -4.9195  -14.7196   11.8250 O   0  0  0  0  0  0  0  0  0  0  0  0
   -7.2617  -14.1837   12.0828 C   0  0  0  0  0  0  0  0  0  0  0  0
   -7.4765  -15.5994   11.7707 N   0  0  0  0  0  0  0  0  0  0  0  0
   -8.7121  -16.1296   11.8603 C   0  0  0  0  0  0  0  0  0  0  0  0
   -9.6461  -15.4345   12.1997 O   0  0  0  0  0  0  0  0  0  0  0  0
   -8.9420  -17.6457   11.5252 B   0  0  0  0  0  0  0  0  0  0  0  0
  1  2  1  0
  2  3  2  0
  2  4  1  0
  4  5  1  0
  4  6  1  0
  6  7  1  0
  7  8  1  0
  8  9  2  0
  8 10  1  0
M  END
>  <Gold.Gold.Protein.RotatedWaterAtoms>  (113) 


>  <Gold.Id.Protein>  (113) 


>  <Gold.PLP.Chemscore.CHOScore>  (113) 
0.0000

>  <Gold.PLP.Chemscore.Hbond>  (113) 
2.7680

>  <Gold.PLP.Chemscore.Internal.Correction>  (113) 
0.0008

>  <Gold.PLP.Chemscore.Metal>  (113) 
0.0000

>  <Gold.PLP.Fitness>  (113) 
36.3850

>  <Gold.PLP.PLP>  (113) 
-28.6876

>  <Gold.PLP.ligand.clash>  (113) 
0.0000

>  <Gold.PLP.ligand.torsion>  (113) 
0.3036

>  <Gold.PLP.part.buried>  (113) 
-7.6461

>  <Gold.PLP.part.hbond>  (113) 
-5.0159

>  <Gold.PLP.part.metal>  (113) 
0.0000

>  <Gold.PLP.part.nonpolar>  (113) 
-17.2271

>  <Gold.PLP.part.repulsive>  (113) 
0.4229

>  <Gold.Protein.RotatedAtoms>  (113) 


>  <Gold.Protein.RotatedTorsions>  (113) 


>  <Gold.Protein.RotatedWaterAtoms>  (113) 


>  <Gold.Version>  (113) 
5.3.0

>  <PLP.Chemscore.CHOScore>  (113) 


>  <PLP.Chemscore.Hbond>  (113) 


>  <PLP.Chemscore.Internal.Correction>  (113) 


>  <PLP.Chemscore.Metal>  (113) 


>  <PLP.Fitness>  (113) 


>  <PLP.PLP>  (113) 


>  <PLP.ligand.clash>  (113) 


>  <PLP.ligand.torsion>  (113) 


>  <PLP.part.buried>  (113) 


>  <PLP.part.hbond>  (113) 


>  <PLP.part.metal>  (113) 


>  <PLP.part.nonpolar>  (113) 


>  <PLP.part.repulsive>  (113) 


>  <Version>  (113) 


$$$$
94|664022_40|Aromatic_carboxylic_acids_F|sdf|24|dock1|1
     RDKit          3D

 12 12  0  0  0  0  0  0  0  0999 V2000
   -8.2596  -17.1212   11.4595 C   0  0  0  0  0  0  0  0  0  0  0  0
   -7.6366  -15.8367   11.6688 N   0  0  0  0  0  0  0  0  0  0  0  0
   -8.3409  -14.6553   11.5719 C   0  0  0  0  0  0  0  0  0  0  0  0
   -9.5296  -14.5547   11.2978 O   0  0  0  0  0  0  0  0  0  0  0  0
   -7.5420  -13.4431   11.8503 C   0  0  0  0  0  0  0  0  0  0  0  0
   -8.1627  -12.1983   11.6738 C   0  0  0  0  0  0  0  0  0  0  0  0
   -7.4390  -11.0301   11.9055 C   0  0  0  0  0  0  0  0  0  0  0  0
   -6.1069  -11.0910   12.3103 C   0  0  0  0  0  0  0  0  0  0  0  0
   -5.4897  -12.3324   12.4853 C   0  0  0  0  0  0  0  0  0  0  0  0
   -6.2035  -13.5136   12.2549 C   0  0  0  0  0  0  0  0  0  0  0  0
   -5.3062  -15.1564   12.5638 Br  0  0  0  0  0  0  0  0  0  0  0  0
   -8.1960   -9.5005   11.6887 Cl  0  0  0  0  0  0  0  0  0  0  0  0
  1  2  1  0
  2  3  1  0
  3  4  2  0
  3  5  1  0
  5  6  2  0
  5 10  1  0
  6  7  1  0
  7  8  2  0
  7 12  1  0
  8  9  1  0
  9 10  2  0
 10 11  1  0
M  END
>  <Gold.Gold.Protein.RotatedWaterAtoms>  (114) 


>  <Gold.Id.Protein>  (114) 


>  <Gold.PLP.Chemscore.CHOScore>  (114) 
0.0000

>  <Gold.PLP.Chemscore.Hbond>  (114) 
0.4160

>  <Gold.PLP.Chemscore.Internal.Correction>  (114) 
0.0004

>  <Gold.PLP.Chemscore.Metal>  (114) 
0.0000

>  <Gold.PLP.Fitness>  (114) 
48.9046

>  <Gold.PLP.PLP>  (114) 
-47.6744

>  <Gold.PLP.ligand.clash>  (114) 
0.0000

>  <Gold.PLP.ligand.torsion>  (114) 
0.0091

>  <Gold.PLP.part.buried>  (114) 
-7.3578

>  <Gold.PLP.part.hbond>  (114) 
-0.5127

>  <Gold.PLP.part.metal>  (114) 
0.0000

>  <Gold.PLP.part.nonpolar>  (114) 
-40.3098

>  <Gold.PLP.part.repulsive>  (114) 
0.1684

>  <Gold.Protein.RotatedAtoms>  (114) 


>  <Gold.Protein.RotatedTorsions>  (114) 


>  <Gold.Protein.RotatedWaterAtoms>  (114) 


>  <Gold.Version>  (114) 
5.3.0

>  <PLP.Chemscore.CHOScore>  (114) 


>  <PLP.Chemscore.Hbond>  (114) 


>  <PLP.Chemscore.Internal.Correction>  (114) 


>  <PLP.Chemscore.Metal>  (114) 


>  <PLP.Fitness>  (114) 


>  <PLP.PLP>  (114) 


>  <PLP.ligand.clash>  (114) 


>  <PLP.ligand.torsion>  (114) 


>  <PLP.part.buried>  (114) 


>  <PLP.part.hbond>  (114) 


>  <PLP.part.metal>  (114) 


>  <PLP.part.nonpolar>  (114) 


>  <PLP.part.repulsive>  (114) 


>  <RMSD>  (114) 
0.30972197429

>  <Torsion>  (114) 
172.929186758

>  <TorsionO>  (114) 
24.4968065243

>  <TorsionR>  (114) 
162.574006718

>  <Version>  (114) 


>  <product>  (114) 
80|Compound_31|Compounds_3D_F|sdf|13|dock6|1

>  <rmsd>  (114) 
-1

$$$$
110|565385_49|Aromatic_carboxylic_acids_F|sdf|29|dock1|1
     RDKit          3D

 13 13  0  0  0  0  0  0  0  0999 V2000
  -10.1118  -17.9021   11.6320 C   0  0  0  0  0  0  0  0  0  0  0  0
   -9.7537  -16.5043   11.6546 N   0  0  0  0  0  0  0  0  0  0  0  0
   -8.4330  -16.1187   11.7930 C   0  0  0  0  0  0  0  0  0  0  0  0
   -7.5159  -16.9298   11.9008 O   0  0  0  0  0  0  0  0  0  0  0  0
   -8.1234  -14.6552   11.8105 C   0  0  0  0  0  0  0  0  0  0  0  0
   -9.0636  -13.6551   11.5375 C   0  0  0  0  0  0  0  0  0  0  0  0
   -8.6966  -12.3009   11.5726 C   0  0  0  0  0  0  0  0  0  0  0  0
   -7.3879  -11.9195   11.8809 C   0  0  0  0  0  0  0  0  0  0  0  0
   -6.4486  -12.9235   12.1551 C   0  0  0  0  0  0  0  0  0  0  0  0
   -6.8098  -14.2750   12.1207 C   0  0  0  0  0  0  0  0  0  0  0  0
   -4.6444  -12.5025   12.5849 Br  0  0  0  0  0  0  0  0  0  0  0  0
   -6.9476  -10.6242   11.9372 O   0  0  0  0  0  0  0  0  0  0  0  0
   -7.9020   -9.5910   11.7256 C   0  0  0  0  0  0  0  0  0  0  0  0
  1  2  1  0
  2  3  1  0
  3  4  2  0
  3  5  1  0
  5  6  2  0
  5 10  1  0
  6  7  1  0
  7  8  2  0
  8  9  1  0
  8 12  1  0
  9 10  2  0
  9 11  1  0
 12 13  1  0
M  END
>  <Gold.Gold.Protein.RotatedWaterAtoms>  (115) 


>  <Gold.Id.Protein>  (115) 


>  <Gold.PLP.Chemscore.CHOScore>  (115) 
0.0000

>  <Gold.PLP.Chemscore.Hbond>  (115) 
1.0000

>  <Gold.PLP.Chemscore.Internal.Correction>  (115) 
0.0000

>  <Gold.PLP.Chemscore.Metal>  (115) 
0.0000

>  <Gold.PLP.Fitness>  (115) 
43.9775

>  <Gold.PLP.PLP>  (115) 
-41.0517

>  <Gold.PLP.ligand.clash>  (115) 
0.0000

>  <Gold.PLP.ligand.torsion>  (115) 
0.0371

>  <Gold.PLP.part.buried>  (115) 
-3.7367

>  <Gold.PLP.part.hbond>  (115) 
-1.0000

>  <Gold.PLP.part.metal>  (115) 
0.0000

>  <Gold.PLP.part.nonpolar>  (115) 
-36.7483

>  <Gold.PLP.part.repulsive>  (115) 
0.4054

>  <Gold.Protein.RotatedAtoms>  (115) 


>  <Gold.Protein.RotatedTorsions>  (115) 


>  <Gold.Protein.RotatedWaterAtoms>  (115) 


>  <Gold.Version>  (115) 
5.3.0

>  <PLP.Chemscore.CHOScore>  (115) 


>  <PLP.Chemscore.Hbond>  (115) 


>  <PLP.Chemscore.Internal.Correction>  (115) 


>  <PLP.Chemscore.Metal>  (115) 


>  <PLP.Fitness>  (115) 


>  <PLP.PLP>  (115) 


>  <PLP.ligand.clash>  (115) 


>  <PLP.ligand.torsion>  (115) 


>  <PLP.part.buried>  (115) 


>  <PLP.part.hbond>  (115) 


>  <PLP.part.metal>  (115) 


>  <PLP.part.nonpolar>  (115) 


>  <PLP.part.repulsive>  (115) 


>  <RMSD>  (115) 
0.319376411377

>  <Torsion>  (115) 
169.460450784

>  <TorsionO>  (115) 
9.7963905484

>  <TorsionR>  (115) 
179.256841332

>  <Version>  (115) 


>  <product>  (115) 
80|Compound_31|Compounds_3D_F|sdf|13|dock6|1

>  <rmsd>  (115) 
-1

$$$$
128|137677_56|Aromatic_carboxylic_acids_F|sdf|33|dock1|1
     RDKit          3D

 11 11  0  0  0  0  0  0  0  0999 V2000
   -8.6116  -16.1544   11.8887 C   0  0  0  0  0  0  0  0  0  0  0  0
   -7.9978  -14.8484   11.9215 N   0  0  0  0  0  0  0  0  0  0  0  0
   -8.7778  -13.7008   11.8756 C   0  0  0  0  0  0  0  0  0  0  0  0
  -10.0002  -13.7896   11.8139 O   0  0  0  0  0  0  0  0  0  0  0  0
   -8.0808  -12.3609   11.9017 C   0  0  0  0  0  0  0  0  0  0  0  0
   -8.7916  -11.1851   11.5813 C   0  0  0  0  0  0  0  0  0  0  0  0
   -8.1781   -9.9267   11.5989 C   0  0  0  0  0  0  0  0  0  0  0  0
   -6.8391   -9.8089   11.9369 C   0  0  0  0  0  0  0  0  0  0  0  0
   -6.1124  -10.9502   12.2575 C   0  0  0  0  0  0  0  0  0  0  0  0
   -6.7171  -12.2196   12.2428 C   0  0  0  0  0  0  0  0  0  0  0  0
   -5.5419  -13.6455   12.7121 Br  0  0  0  0  0  0  0  0  0  0  0  0
  1  2  1  0
  2  3  1  0
  3  4  2  0
  3  5  1  0
  5  6  2  0
  5 10  1  0
  6  7  1  0
  7  8  2  0
  8  9  1  0
  9 10  2  0
 10 11  1  0
M  END
>  <Gold.Gold.Protein.RotatedWaterAtoms>  (116) 


>  <Gold.Id.Protein>  (116) 


>  <Gold.PLP.Chemscore.CHOScore>  (116) 
0.0000

>  <Gold.PLP.Chemscore.Hbond>  (116) 
1.0000

>  <Gold.PLP.Chemscore.Internal.Correction>  (116) 
0.0000

>  <Gold.PLP.Chemscore.Metal>  (116) 
0.0000

>  <Gold.PLP.Fitness>  (116) 
45.2899

>  <Gold.PLP.PLP>  (116) 
-42.4444

>  <Gold.PLP.ligand.clash>  (116) 
0.0000

>  <Gold.PLP.ligand.torsion>  (116) 
0.0772

>  <Gold.PLP.part.buried>  (116) 
-6.4690

>  <Gold.PLP.part.hbond>  (116) 
-0.6863

>  <Gold.PLP.part.metal>  (116) 
0.0000

>  <Gold.PLP.part.nonpolar>  (116) 
-34.8280

>  <Gold.PLP.part.repulsive>  (116) 
0.1963

>  <Gold.Protein.RotatedAtoms>  (116) 


>  <Gold.Protein.RotatedTorsions>  (116) 


>  <Gold.Protein.RotatedWaterAtoms>  (116) 


>  <Gold.Version>  (116) 
5.3.0

>  <PLP.Chemscore.CHOScore>  (116) 


>  <PLP.Chemscore.Hbond>  (116) 


>  <PLP.Chemscore.Internal.Correction>  (116) 


>  <PLP.Chemscore.Metal>  (116) 


>  <PLP.Fitness>  (116) 


>  <PLP.PLP>  (116) 


>  <PLP.ligand.clash>  (116) 


>  <PLP.ligand.torsion>  (116) 


>  <PLP.part.buried>  (116) 


>  <PLP.part.hbond>  (116) 


>  <PLP.part.metal>  (116) 


>  <PLP.part.nonpolar>  (116) 


>  <PLP.part.repulsive>  (116) 


>  <RMSD>  (116) 
0.428070490903

>  <Torsion>  (116) 
152.444048788

>  <TorsionO>  (116) 
39.0580871276

>  <TorsionR>  (116) 
168.497864085

>  <Version>  (116) 


>  <product>  (116) 
80|Compound_31|Compounds_3D_F|sdf|13|dock6|1

>  <rmsd>  (116) 
-1

$$$$
974|750794_1404|Aromatic_primary_amines_F|sdf|194|dock3|1
     RDKit          3D

 14 14  0  0  0  0  0  0  0  0999 V2000
  -13.6355  -18.1936    9.4145 C   0  0  0  0  0  0  0  0  0  0  0  0
  -13.2544  -19.4497   10.1732 C   0  0  0  0  0  0  0  0  0  0  0  0
  -11.8731  -19.3506   10.5383 O   0  0  0  0  0  0  0  0  0  0  0  0
  -11.6148  -18.5085   11.5823 C   0  0  0  0  0  0  0  0  0  0  0  0
  -12.3947  -18.2810   12.5004 O   0  0  0  0  0  0  0  0  0  0  0  0
  -10.3031  -17.8985   11.4902 C   0  0  0  0  0  0  0  0  0  0  0  0
   -9.1673  -18.4974   10.9931 C   0  0  0  0  0  0  0  0  0  0  0  0
   -8.1448  -17.6055   11.0758 O   0  0  0  0  0  0  0  0  0  0  0  0
   -8.7110  -16.4917   11.6237 C   0  0  0  0  0  0  0  0  0  0  0  0
   -9.9933  -16.6110   11.8915 N   0  0  0  0  0  0  0  0  0  0  0  0
   -7.9611  -15.3718   11.8549 N   0  0  0  0  0  0  0  0  0  0  0  0
   -8.5046  -14.1249   12.0676 C   0  0  0  0  0  0  0  0  0  0  0  0
   -9.6950  -13.8313   12.1035 O   0  0  0  0  0  0  0  0  0  0  0  0
   -7.4448  -13.0785   12.3021 C   0  0  0  0  0  0  0  0  0  0  0  0
  1  2  1  0
  2  3  1  0
  3  4  1  0
  4  5  2  0
  4  6  1  0
  6  7  2  0
  6 10  1  0
  7  8  1  0
  8  9  1  0
  9 10  2  0
  9 11  1  0
 11 12  1  0
 12 13  2  0
 12 14  1  0
M  END
>  <Gold.Gold.Protein.RotatedWaterAtoms>  (117) 


>  <Gold.Id.Protein>  (117) 


>  <Gold.PLP.Chemscore.CHOScore>  (117) 
0.0000

>  <Gold.PLP.Chemscore.Hbond>  (117) 
2.0000

>  <Gold.PLP.Chemscore.Internal.Correction>  (117) 
0.0053

>  <Gold.PLP.Chemscore.Metal>  (117) 
0.0000

>  <Gold.PLP.Fitness>  (117) 
36.8047

>  <Gold.PLP.PLP>  (117) 
-32.7996

>  <Gold.PLP.ligand.clash>  (117) 
0.0000

>  <Gold.PLP.ligand.torsion>  (117) 
1.0001

>  <Gold.PLP.part.buried>  (117) 
-6.5206

>  <Gold.PLP.part.hbond>  (117) 
-2.9156

>  <Gold.PLP.part.metal>  (117) 
0.0000

>  <Gold.PLP.part.nonpolar>  (117) 
-23.4080

>  <Gold.PLP.part.repulsive>  (117) 
0.3100

>  <Gold.Protein.RotatedAtoms>  (117) 


>  <Gold.Protein.RotatedTorsions>  (117) 


>  <Gold.Protein.RotatedWaterAtoms>  (117) 


>  <Gold.Version>  (117) 
5.3.0

>  <PLP.Chemscore.CHOScore>  (117) 


>  <PLP.Chemscore.Hbond>  (117) 


>  <PLP.Chemscore.Internal.Correction>  (117) 


>  <PLP.Chemscore.Metal>  (117) 


>  <PLP.Fitness>  (117) 


>  <PLP.PLP>  (117) 


>  <PLP.ligand.clash>  (117) 


>  <PLP.ligand.torsion>  (117) 


>  <PLP.part.buried>  (117) 


>  <PLP.part.hbond>  (117) 


>  <PLP.part.metal>  (117) 


>  <PLP.part.nonpolar>  (117) 


>  <PLP.part.repulsive>  (117) 


>  <RMSD>  (117) 
0.499949349045

>  <Torsion>  (117) 
159.973716791

>  <TorsionO>  (117) 
19.1052109979

>  <TorsionR>  (117) 
179.078927789

>  <Version>  (117) 


>  <product>  (117) 
80|Compound_31|Compounds_3D_F|sdf|13|dock6|1

>  <rmsd>  (117) 
-1

$$$$
1884|M3006_1781|Aromatic_primary_amines_F|sdf|361|dock3|1
     RDKit          3D

 31 34  0  0  0  0  0  0  0  0999 V2000
  -14.4210  -19.8971    8.7934 C   0  0  0  0  0  0  0  0  0  0  0  0
  -13.9762  -19.4927   10.1894 C   0  0  0  0  0  0  0  0  0  0  0  0
  -14.1356  -20.6409   11.1817 C   0  0  0  0  0  0  0  0  0  0  0  0
  -13.5197  -20.3070   12.5189 C   0  0  0  0  0  0  0  0  0  0  0  0
  -12.9307  -19.2724   12.7954 O   0  0  0  0  0  0  0  0  0  0  0  0
  -13.7110  -21.3451   13.3845 O   0  0  0  0  0  0  0  0  0  0  0  0
  -12.9425  -21.2698   14.5900 C   0  0  0  0  0  0  0  0  0  0  0  0
  -12.8849  -22.6189   15.2889 C   0  0  0  0  0  0  0  0  0  0  0  0
  -11.6552  -22.4172   16.1494 C   0  0  0  0  0  0  0  0  0  0  0  0
  -11.2420  -23.7410   16.7624 C   0  0  0  0  0  0  0  0  0  0  0  0
  -12.3024  -24.2223   17.5862 O   0  0  0  0  0  0  0  0  0  0  0  0
  -13.7888  -24.3384   16.9603 P   0  0  0  0  0  0  0  0  0  0  0  0
  -14.8775  -24.6795   17.9243 O   0  0  0  0  0  0  0  0  0  0  0  0
  -13.9839  -22.9641   16.1174 O   0  0  0  0  0  0  0  0  0  0  0  0
  -13.5991  -25.4435   15.8075 O   0  0  0  0  0  0  0  0  0  0  0  0
  -10.6922  -21.8161   15.2889 O   0  0  0  0  0  0  0  0  0  0  0  0
  -11.4338  -20.9664   14.3653 C   0  0  0  0  0  0  0  0  0  0  0  0
  -10.9052  -21.2017   13.0342 N   0  0  0  0  0  0  0  0  0  0  0  0
  -10.7814  -22.4114   12.4013 C   0  0  0  0  0  0  0  0  0  0  0  0
  -10.2640  -22.2918   11.1953 N   0  0  0  0  0  0  0  0  0  0  0  0
  -10.0274  -20.9476   11.0424 C   0  0  0  0  0  0  0  0  0  0  0  0
  -10.4203  -20.2487   12.1733 C   0  0  0  0  0  0  0  0  0  0  0  0
  -10.3338  -18.9216   12.3641 N   0  0  0  0  0  0  0  0  0  0  0  0
   -9.8057  -18.2730   11.3024 C   0  0  0  0  0  0  0  0  0  0  0  0
   -9.3808  -18.8370   10.1545 N   0  0  0  0  0  0  0  0  0  0  0  0
   -9.4895  -20.1691   10.0244 C   0  0  0  0  0  0  0  0  0  0  0  0
   -9.0330  -20.6622    8.8349 O   0  0  0  0  0  0  0  0  0  0  0  0
   -9.7222  -16.8901   11.4793 N   0  0  0  0  0  0  0  0  0  0  0  0
   -8.5796  -16.1798   11.7761 C   0  0  0  0  0  0  0  0  0  0  0  0
   -7.4445  -16.6221   11.9131 O   0  0  0  0  0  0  0  0  0  0  0  0
   -8.8524  -14.7024   11.8973 C   0  0  0  0  0  0  0  0  0  0  0  0
  1  2  1  0
  2  3  1  0
  3  4  1  0
  4  5  2  0
  4  6  1  0
  6  7  1  0
  7  8  1  0
  7 17  1  0
  8  9  1  0
  8 14  1  0
  9 10  1  0
  9 16  1  0
 10 11  1  0
 11 12  1  0
 12 13  2  0
 12 14  1  0
 12 15  1  0
 16 17  1  0
 17 18  1  0
 18 19  1  0
 18 22  1  0
 19 20  2  0
 20 21  1  0
 21 22  2  0
 21 26  1  0
 22 23  1  0
 23 24  2  0
 24 25  1  0
 24 28  1  0
 25 26  2  0
 26 27  1  0
 28 29  1  0
 29 30  2  0
 29 31  1  0
M  END
>  <Gold.Gold.Protein.RotatedWaterAtoms>  (118) 


>  <Gold.Id.Protein>  (118) 


>  <Gold.PLP.Chemscore.CHOScore>  (118) 
0.0000

>  <Gold.PLP.Chemscore.Hbond>  (118) 
1.2080

>  <Gold.PLP.Chemscore.Internal.Correction>  (118) 
0.1232

>  <Gold.PLP.Chemscore.Metal>  (118) 
0.0000

>  <Gold.PLP.Fitness>  (118) 
47.7145

>  <Gold.PLP.PLP>  (118) 
-46.0218

>  <Gold.PLP.ligand.clash>  (118) 
0.0000

>  <Gold.PLP.ligand.torsion>  (118) 
1.0272

>  <Gold.PLP.part.buried>  (118) 
-2.2958

>  <Gold.PLP.part.hbond>  (118) 
-4.0214

>  <Gold.PLP.part.metal>  (118) 
0.0000

>  <Gold.PLP.part.nonpolar>  (118) 
-41.4699

>  <Gold.PLP.part.repulsive>  (118) 
0.9524

>  <Gold.Protein.RotatedAtoms>  (118) 


>  <Gold.Protein.RotatedTorsions>  (118) 


>  <Gold.Protein.RotatedWaterAtoms>  (118) 


>  <Gold.Version>  (118) 
5.3.0

>  <PLP.Chemscore.CHOScore>  (118) 


>  <PLP.Chemscore.Hbond>  (118) 


>  <PLP.Chemscore.Internal.Correction>  (118) 


>  <PLP.Chemscore.Metal>  (118) 


>  <PLP.Fitness>  (118) 


>  <PLP.PLP>  (118) 


>  <PLP.ligand.clash>  (118) 


>  <PLP.ligand.torsion>  (118) 


>  <PLP.part.buried>  (118) 


>  <PLP.part.hbond>  (118) 


>  <PLP.part.metal>  (118) 


>  <PLP.part.nonpolar>  (118) 


>  <PLP.part.repulsive>  (118) 


>  <RMSD>  (118) 
0.291955871297

>  <Torsion>  (118) 
171.923704933

>  <TorsionO>  (118) 
6.03609353985

>  <TorsionR>  (118) 
177.959798473

>  <Version>  (118) 


>  <product>  (118) 
80|Compound_31|Compounds_3D_F|sdf|13|dock6|1

>  <rmsd>  (118) 
-1

$$$$
193|32168_281|Aromatic_primary_amines_F|sdf|39|dock6|1
     RDKit          3D

 23 25  0  0  0  0  0  0  0  0999 V2000
   -7.8439  -12.1461   11.8919 C   0  0  0  0  0  0  0  0  0  0  0  0
   -8.5691  -13.4472   11.6781 C   0  0  0  0  0  0  0  0  0  0  0  0
   -9.7886  -13.4981   11.5208 O   0  0  0  0  0  0  0  0  0  0  0  0
   -7.7264  -14.5390   11.7020 N   0  0  0  0  0  0  0  0  0  0  0  0
   -8.1889  -15.8197   11.5323 C   0  0  0  0  0  0  0  0  0  0  0  0
   -9.4747  -16.2039   11.8163 N   0  0  0  0  0  0  0  0  0  0  0  0
   -9.5964  -17.5375   11.5379 C   0  0  0  0  0  0  0  0  0  0  0  0
  -10.6643  -18.4283   11.6415 C   0  0  0  0  0  0  0  0  0  0  0  0
  -10.4051  -19.7586   11.2778 C   0  0  0  0  0  0  0  0  0  0  0  0
   -9.1530  -20.1507   10.7795 C   0  0  0  0  0  0  0  0  0  0  0  0
   -8.1017  -19.2294   10.6839 C   0  0  0  0  0  0  0  0  0  0  0  0
   -8.3349  -17.9032   11.0783 C   0  0  0  0  0  0  0  0  0  0  0  0
   -7.4773  -16.8281   11.0838 N   0  0  0  0  0  0  0  0  0  0  0  0
   -8.8530  -21.7658   10.2429 Cl  0  0  0  0  0  0  0  0  0  0  0  0
  -11.4669  -20.6323   11.3734 O   0  0  0  0  0  0  0  0  0  0  0  0
  -12.5262  -20.4408   10.5053 C   0  0  0  0  0  0  0  0  0  0  0  0
  -13.3188  -19.2846   10.5304 C   0  0  0  0  0  0  0  0  0  0  0  0
  -14.3665  -19.1344    9.6224 C   0  0  0  0  0  0  0  0  0  0  0  0
  -14.6219  -20.1279    8.6796 C   0  0  0  0  0  0  0  0  0  0  0  0
  -13.8238  -21.2756    8.6345 C   0  0  0  0  0  0  0  0  0  0  0  0
  -12.7674  -21.4342    9.5416 C   0  0  0  0  0  0  0  0  0  0  0  0
  -11.7588  -22.8458    9.4996 Cl  0  0  0  0  0  0  0  0  0  0  0  0
  -14.1988  -22.4584    7.4296 Cl  0  0  0  0  0  0  0  0  0  0  0  0
  1  2  1  0
  2  3  2  0
  2  4  1  0
  4  5  1  0
  5  6  1  0
  5 13  2  0
  6  7  1  0
  7  8  2  0
  7 12  1  0
  8  9  1  0
  9 10  2  0
  9 15  1  0
 10 11  1  0
 10 14  1  0
 11 12  2  0
 12 13  1  0
 15 16  1  0
 16 17  2  0
 16 21  1  0
 17 18  1  0
 18 19  2  0
 19 20  1  0
 20 21  2  0
 20 23  1  0
 21 22  1  0
M  END
>  <Gold.Gold.Protein.RotatedWaterAtoms>  (119) 


>  <Gold.Id.Protein>  (119) 


>  <Gold.PLP.Chemscore.CHOScore>  (119) 
0.0000

>  <Gold.PLP.Chemscore.Hbond>  (119) 
1.0000

>  <Gold.PLP.Chemscore.Internal.Correction>  (119) 
0.0086

>  <Gold.PLP.Chemscore.Metal>  (119) 
0.0000

>  <Gold.PLP.Fitness>  (119) 
50.7139

>  <Gold.PLP.PLP>  (119) 
-48.1706

>  <Gold.PLP.ligand.clash>  (119) 
0.0000

>  <Gold.PLP.ligand.torsion>  (119) 
0.2327

>  <Gold.PLP.part.buried>  (119) 
-6.5205

>  <Gold.PLP.part.hbond>  (119) 
-2.0000

>  <Gold.PLP.part.metal>  (119) 
0.0000

>  <Gold.PLP.part.nonpolar>  (119) 
-39.3857

>  <Gold.PLP.part.repulsive>  (119) 
0.3298

>  <Gold.Protein.RotatedAtoms>  (119) 


>  <Gold.Protein.RotatedTorsions>  (119) 


>  <Gold.Protein.RotatedWaterAtoms>  (119) 


>  <Gold.Version>  (119) 
5.3.0

>  <PLP.Chemscore.CHOScore>  (119) 


>  <PLP.Chemscore.Hbond>  (119) 


>  <PLP.Chemscore.Internal.Correction>  (119) 


>  <PLP.Chemscore.Metal>  (119) 


>  <PLP.Fitness>  (119) 


>  <PLP.PLP>  (119) 


>  <PLP.ligand.clash>  (119) 


>  <PLP.ligand.torsion>  (119) 


>  <PLP.part.buried>  (119) 


>  <PLP.part.hbond>  (119) 


>  <PLP.part.metal>  (119) 


>  <PLP.part.nonpolar>  (119) 


>  <PLP.part.repulsive>  (119) 


>  <RMSD>  (119) 
0.439733510035

>  <Torsion>  (119) 
177.672185574

>  <TorsionO>  (119) 
4.31728583372

>  <TorsionR>  (119) 
173.35489974

>  <Version>  (119) 


>  <product>  (119) 
80|Compound_31|Compounds_3D_F|sdf|13|dock6|1

>  <rmsd>  (119) 
-1

$$$$
52|Compound_23|Compounds_3D_F|sdf|9|dock7|1
     RDKit          3D

 11 10  0  0  0  0  0  0  0  0999 V2000
   -9.9359  -13.6947   11.8583 O   0  0  0  0  0  0  0  0  0  0  0  0
   -8.6200  -13.9530   11.8237 C   0  0  0  0  0  0  0  0  0  0  0  0
   -7.8449  -13.2245   12.3981 O   0  0  0  0  0  0  0  0  0  0  0  0
   -8.1067  -15.1516   11.0677 C   0  0  0  0  0  0  0  0  0  0  0  0
   -8.4284  -15.0058    9.6459 N   0  0  0  0  0  0  0  0  0  0  0  0
   -8.0484  -15.9557    8.7680 C   0  0  0  0  0  0  0  0  0  0  0  0
   -7.4415  -16.9311    9.1555 O   0  0  0  0  0  0  0  0  0  0  0  0
   -8.3934  -15.7993    7.2446 B   0  0  0  0  0  0  0  0  0  0  0  0
   -8.7674  -16.4193   11.6122 C   0  0  0  0  0  0  0  0  0  0  0  0
   -6.5894  -15.2526   11.2400 C   0  0  0  0  0  0  0  0  0  0  0  0
   -5.9748  -14.0605   10.7480 O   0  0  0  0  0  0  0  0  0  0  0  0
  1  2  1  0
  2  3  2  0
  2  4  1  0
  4  5  1  0
  4  9  1  0
  4 10  1  0
  5  6  1  0
  6  7  2  0
  6  8  1  0
 10 11  1  0
M  END
>  <Gold.Gold.Protein.RotatedWaterAtoms>  (120) 


>  <Gold.Id.Protein>  (120) 


>  <Gold.PLP.Chemscore.CHOScore>  (120) 
0.0000

>  <Gold.PLP.Chemscore.Hbond>  (120) 
3.0000

>  <Gold.PLP.Chemscore.Internal.Correction>  (120) 
0.0003

>  <Gold.PLP.Chemscore.Metal>  (120) 
0.0000

>  <Gold.PLP.Fitness>  (120) 
32.3860

>  <Gold.PLP.PLP>  (120) 
-23.4342

>  <Gold.PLP.ligand.clash>  (120) 
0.0000

>  <Gold.PLP.ligand.torsion>  (120) 
0.0242

>  <Gold.PLP.part.buried>  (120) 
-4.3633

>  <Gold.PLP.part.hbond>  (120) 
-4.0000

>  <Gold.PLP.part.metal>  (120) 
0.0000

>  <Gold.PLP.part.nonpolar>  (120) 
-14.7449

>  <Gold.PLP.part.repulsive>  (120) 
0.2166

>  <Gold.Protein.RotatedAtoms>  (120) 


>  <Gold.Protein.RotatedTorsions>  (120) 


>  <Gold.Protein.RotatedWaterAtoms>  (120) 


>  <Gold.Version>  (120) 
5.3.0

>  <PLP.Chemscore.CHOScore>  (120) 


>  <PLP.Chemscore.Hbond>  (120) 


>  <PLP.Chemscore.Internal.Correction>  (120) 


>  <PLP.Chemscore.Metal>  (120) 


>  <PLP.Fitness>  (120) 


>  <PLP.PLP>  (120) 


>  <PLP.ligand.clash>  (120) 


>  <PLP.ligand.torsion>  (120) 


>  <PLP.part.buried>  (120) 


>  <PLP.part.hbond>  (120) 


>  <PLP.part.metal>  (120) 


>  <PLP.part.nonpolar>  (120) 


>  <PLP.part.repulsive>  (120) 


>  <Version>  (120) 


$$$$
94|664022_40|Aromatic_carboxylic_acids_F|sdf|24|dock1|1
     RDKit          3D

 12 12  0  0  0  0  0  0  0  0999 V2000
   -8.2596  -17.1212   11.4595 C   0  0  0  0  0  0  0  0  0  0  0  0
   -7.6366  -15.8367   11.6688 N   0  0  0  0  0  0  0  0  0  0  0  0
   -8.3409  -14.6553   11.5719 C   0  0  0  0  0  0  0  0  0  0  0  0
   -9.5296  -14.5547   11.2978 O   0  0  0  0  0  0  0  0  0  0  0  0
   -7.5420  -13.4431   11.8503 C   0  0  0  0  0  0  0  0  0  0  0  0
   -8.1627  -12.1983   11.6738 C   0  0  0  0  0  0  0  0  0  0  0  0
   -7.4390  -11.0301   11.9055 C   0  0  0  0  0  0  0  0  0  0  0  0
   -6.1069  -11.0910   12.3103 C   0  0  0  0  0  0  0  0  0  0  0  0
   -5.4897  -12.3324   12.4853 C   0  0  0  0  0  0  0  0  0  0  0  0
   -6.2035  -13.5136   12.2549 C   0  0  0  0  0  0  0  0  0  0  0  0
   -5.3062  -15.1564   12.5638 Br  0  0  0  0  0  0  0  0  0  0  0  0
   -8.1960   -9.5005   11.6887 Cl  0  0  0  0  0  0  0  0  0  0  0  0
  1  2  1  0
  2  3  1  0
  3  4  2  0
  3  5  1  0
  5  6  2  0
  5 10  1  0
  6  7  1  0
  7  8  2  0
  7 12  1  0
  8  9  1  0
  9 10  2  0
 10 11  1  0
M  END
>  <Gold.Gold.Protein.RotatedWaterAtoms>  (121) 


>  <Gold.Id.Protein>  (121) 


>  <Gold.PLP.Chemscore.CHOScore>  (121) 
0.0000

>  <Gold.PLP.Chemscore.Hbond>  (121) 
0.4160

>  <Gold.PLP.Chemscore.Internal.Correction>  (121) 
0.0004

>  <Gold.PLP.Chemscore.Metal>  (121) 
0.0000

>  <Gold.PLP.Fitness>  (121) 
48.9046

>  <Gold.PLP.PLP>  (121) 
-47.6744

>  <Gold.PLP.ligand.clash>  (121) 
0.0000

>  <Gold.PLP.ligand.torsion>  (121) 
0.0091

>  <Gold.PLP.part.buried>  (121) 
-7.3578

>  <Gold.PLP.part.hbond>  (121) 
-0.5127

>  <Gold.PLP.part.metal>  (121) 
0.0000

>  <Gold.PLP.part.nonpolar>  (121) 
-40.3098

>  <Gold.PLP.part.repulsive>  (121) 
0.1684

>  <Gold.Protein.RotatedAtoms>  (121) 


>  <Gold.Protein.RotatedTorsions>  (121) 


>  <Gold.Protein.RotatedWaterAtoms>  (121) 


>  <Gold.Version>  (121) 
5.3.0

>  <PLP.Chemscore.CHOScore>  (121) 


>  <PLP.Chemscore.Hbond>  (121) 


>  <PLP.Chemscore.Internal.Correction>  (121) 


>  <PLP.Chemscore.Metal>  (121) 


>  <PLP.Fitness>  (121) 


>  <PLP.PLP>  (121) 


>  <PLP.ligand.clash>  (121) 


>  <PLP.ligand.torsion>  (121) 


>  <PLP.part.buried>  (121) 


>  <PLP.part.hbond>  (121) 


>  <PLP.part.metal>  (121) 


>  <PLP.part.nonpolar>  (121) 


>  <PLP.part.repulsive>  (121) 


>  <RMSD>  (121) 
0.30972197429

>  <Torsion>  (121) 
172.929186758

>  <TorsionO>  (121) 
24.4968065243

>  <TorsionR>  (121) 
162.574006718

>  <Version>  (121) 


>  <product>  (121) 
52|Compound_23|Compounds_3D_F|sdf|9|dock7|1

>  <rmsd>  (121) 
-1

$$$$
110|565385_49|Aromatic_carboxylic_acids_F|sdf|29|dock1|1
     RDKit          3D

 13 13  0  0  0  0  0  0  0  0999 V2000
  -10.1118  -17.9021   11.6320 C   0  0  0  0  0  0  0  0  0  0  0  0
   -9.7537  -16.5043   11.6546 N   0  0  0  0  0  0  0  0  0  0  0  0
   -8.4330  -16.1187   11.7930 C   0  0  0  0  0  0  0  0  0  0  0  0
   -7.5159  -16.9298   11.9008 O   0  0  0  0  0  0  0  0  0  0  0  0
   -8.1234  -14.6552   11.8105 C   0  0  0  0  0  0  0  0  0  0  0  0
   -9.0636  -13.6551   11.5375 C   0  0  0  0  0  0  0  0  0  0  0  0
   -8.6966  -12.3009   11.5726 C   0  0  0  0  0  0  0  0  0  0  0  0
   -7.3879  -11.9195   11.8809 C   0  0  0  0  0  0  0  0  0  0  0  0
   -6.4486  -12.9235   12.1551 C   0  0  0  0  0  0  0  0  0  0  0  0
   -6.8098  -14.2750   12.1207 C   0  0  0  0  0  0  0  0  0  0  0  0
   -4.6444  -12.5025   12.5849 Br  0  0  0  0  0  0  0  0  0  0  0  0
   -6.9476  -10.6242   11.9372 O   0  0  0  0  0  0  0  0  0  0  0  0
   -7.9020   -9.5910   11.7256 C   0  0  0  0  0  0  0  0  0  0  0  0
  1  2  1  0
  2  3  1  0
  3  4  2  0
  3  5  1  0
  5  6  2  0
  5 10  1  0
  6  7  1  0
  7  8  2  0
  8  9  1  0
  8 12  1  0
  9 10  2  0
  9 11  1  0
 12 13  1  0
M  END
>  <Gold.Gold.Protein.RotatedWaterAtoms>  (122) 


>  <Gold.Id.Protein>  (122) 


>  <Gold.PLP.Chemscore.CHOScore>  (122) 
0.0000

>  <Gold.PLP.Chemscore.Hbond>  (122) 
1.0000

>  <Gold.PLP.Chemscore.Internal.Correction>  (122) 
0.0000

>  <Gold.PLP.Chemscore.Metal>  (122) 
0.0000

>  <Gold.PLP.Fitness>  (122) 
43.9775

>  <Gold.PLP.PLP>  (122) 
-41.0517

>  <Gold.PLP.ligand.clash>  (122) 
0.0000

>  <Gold.PLP.ligand.torsion>  (122) 
0.0371

>  <Gold.PLP.part.buried>  (122) 
-3.7367

>  <Gold.PLP.part.hbond>  (122) 
-1.0000

>  <Gold.PLP.part.metal>  (122) 
0.0000

>  <Gold.PLP.part.nonpolar>  (122) 
-36.7483

>  <Gold.PLP.part.repulsive>  (122) 
0.4054

>  <Gold.Protein.RotatedAtoms>  (122) 


>  <Gold.Protein.RotatedTorsions>  (122) 


>  <Gold.Protein.RotatedWaterAtoms>  (122) 


>  <Gold.Version>  (122) 
5.3.0

>  <PLP.Chemscore.CHOScore>  (122) 


>  <PLP.Chemscore.Hbond>  (122) 


>  <PLP.Chemscore.Internal.Correction>  (122) 


>  <PLP.Chemscore.Metal>  (122) 


>  <PLP.Fitness>  (122) 


>  <PLP.PLP>  (122) 


>  <PLP.ligand.clash>  (122) 


>  <PLP.ligand.torsion>  (122) 


>  <PLP.part.buried>  (122) 


>  <PLP.part.hbond>  (122) 


>  <PLP.part.metal>  (122) 


>  <PLP.part.nonpolar>  (122) 


>  <PLP.part.repulsive>  (122) 


>  <RMSD>  (122) 
0.319376411377

>  <Torsion>  (122) 
169.460450784

>  <TorsionO>  (122) 
9.7963905484

>  <TorsionR>  (122) 
179.256841332

>  <Version>  (122) 


>  <product>  (122) 
52|Compound_23|Compounds_3D_F|sdf|9|dock7|1

>  <rmsd>  (122) 
-1

$$$$
128|137677_56|Aromatic_carboxylic_acids_F|sdf|33|dock1|1
     RDKit          3D

 11 11  0  0  0  0  0  0  0  0999 V2000
   -8.6116  -16.1544   11.8887 C   0  0  0  0  0  0  0  0  0  0  0  0
   -7.9978  -14.8484   11.9215 N   0  0  0  0  0  0  0  0  0  0  0  0
   -8.7778  -13.7008   11.8756 C   0  0  0  0  0  0  0  0  0  0  0  0
  -10.0002  -13.7896   11.8139 O   0  0  0  0  0  0  0  0  0  0  0  0
   -8.0808  -12.3609   11.9017 C   0  0  0  0  0  0  0  0  0  0  0  0
   -8.7916  -11.1851   11.5813 C   0  0  0  0  0  0  0  0  0  0  0  0
   -8.1781   -9.9267   11.5989 C   0  0  0  0  0  0  0  0  0  0  0  0
   -6.8391   -9.8089   11.9369 C   0  0  0  0  0  0  0  0  0  0  0  0
   -6.1124  -10.9502   12.2575 C   0  0  0  0  0  0  0  0  0  0  0  0
   -6.7171  -12.2196   12.2428 C   0  0  0  0  0  0  0  0  0  0  0  0
   -5.5419  -13.6455   12.7121 Br  0  0  0  0  0  0  0  0  0  0  0  0
  1  2  1  0
  2  3  1  0
  3  4  2  0
  3  5  1  0
  5  6  2  0
  5 10  1  0
  6  7  1  0
  7  8  2  0
  8  9  1  0
  9 10  2  0
 10 11  1  0
M  END
>  <Gold.Gold.Protein.RotatedWaterAtoms>  (123) 


>  <Gold.Id.Protein>  (123) 


>  <Gold.PLP.Chemscore.CHOScore>  (123) 
0.0000

>  <Gold.PLP.Chemscore.Hbond>  (123) 
1.0000

>  <Gold.PLP.Chemscore.Internal.Correction>  (123) 
0.0000

>  <Gold.PLP.Chemscore.Metal>  (123) 
0.0000

>  <Gold.PLP.Fitness>  (123) 
45.2899

>  <Gold.PLP.PLP>  (123) 
-42.4444

>  <Gold.PLP.ligand.clash>  (123) 
0.0000

>  <Gold.PLP.ligand.torsion>  (123) 
0.0772

>  <Gold.PLP.part.buried>  (123) 
-6.4690

>  <Gold.PLP.part.hbond>  (123) 
-0.6863

>  <Gold.PLP.part.metal>  (123) 
0.0000

>  <Gold.PLP.part.nonpolar>  (123) 
-34.8280

>  <Gold.PLP.part.repulsive>  (123) 
0.1963

>  <Gold.Protein.RotatedAtoms>  (123) 


>  <Gold.Protein.RotatedTorsions>  (123) 


>  <Gold.Protein.RotatedWaterAtoms>  (123) 


>  <Gold.Version>  (123) 
5.3.0

>  <PLP.Chemscore.CHOScore>  (123) 


>  <PLP.Chemscore.Hbond>  (123) 


>  <PLP.Chemscore.Internal.Correction>  (123) 


>  <PLP.Chemscore.Metal>  (123) 


>  <PLP.Fitness>  (123) 


>  <PLP.PLP>  (123) 


>  <PLP.ligand.clash>  (123) 


>  <PLP.ligand.torsion>  (123) 


>  <PLP.part.buried>  (123) 


>  <PLP.part.hbond>  (123) 


>  <PLP.part.metal>  (123) 


>  <PLP.part.nonpolar>  (123) 


>  <PLP.part.repulsive>  (123) 


>  <RMSD>  (123) 
0.428070490903

>  <Torsion>  (123) 
152.444048788

>  <TorsionO>  (123) 
39.0580871276

>  <TorsionR>  (123) 
168.497864085

>  <Version>  (123) 


>  <product>  (123) 
52|Compound_23|Compounds_3D_F|sdf|9|dock7|1

>  <rmsd>  (123) 
-1

$$$$
974|750794_1404|Aromatic_primary_amines_F|sdf|194|dock3|1
     RDKit          3D

 14 14  0  0  0  0  0  0  0  0999 V2000
  -13.6355  -18.1936    9.4145 C   0  0  0  0  0  0  0  0  0  0  0  0
  -13.2544  -19.4497   10.1732 C   0  0  0  0  0  0  0  0  0  0  0  0
  -11.8731  -19.3506   10.5383 O   0  0  0  0  0  0  0  0  0  0  0  0
  -11.6148  -18.5085   11.5823 C   0  0  0  0  0  0  0  0  0  0  0  0
  -12.3947  -18.2810   12.5004 O   0  0  0  0  0  0  0  0  0  0  0  0
  -10.3031  -17.8985   11.4902 C   0  0  0  0  0  0  0  0  0  0  0  0
   -9.1673  -18.4974   10.9931 C   0  0  0  0  0  0  0  0  0  0  0  0
   -8.1448  -17.6055   11.0758 O   0  0  0  0  0  0  0  0  0  0  0  0
   -8.7110  -16.4917   11.6237 C   0  0  0  0  0  0  0  0  0  0  0  0
   -9.9933  -16.6110   11.8915 N   0  0  0  0  0  0  0  0  0  0  0  0
   -7.9611  -15.3718   11.8549 N   0  0  0  0  0  0  0  0  0  0  0  0
   -8.5046  -14.1249   12.0676 C   0  0  0  0  0  0  0  0  0  0  0  0
   -9.6950  -13.8313   12.1035 O   0  0  0  0  0  0  0  0  0  0  0  0
   -7.4448  -13.0785   12.3021 C   0  0  0  0  0  0  0  0  0  0  0  0
  1  2  1  0
  2  3  1  0
  3  4  1  0
  4  5  2  0
  4  6  1  0
  6  7  2  0
  6 10  1  0
  7  8  1  0
  8  9  1  0
  9 10  2  0
  9 11  1  0
 11 12  1  0
 12 13  2  0
 12 14  1  0
M  END
>  <Gold.Gold.Protein.RotatedWaterAtoms>  (124) 


>  <Gold.Id.Protein>  (124) 


>  <Gold.PLP.Chemscore.CHOScore>  (124) 
0.0000

>  <Gold.PLP.Chemscore.Hbond>  (124) 
2.0000

>  <Gold.PLP.Chemscore.Internal.Correction>  (124) 
0.0053

>  <Gold.PLP.Chemscore.Metal>  (124) 
0.0000

>  <Gold.PLP.Fitness>  (124) 
36.8047

>  <Gold.PLP.PLP>  (124) 
-32.7996

>  <Gold.PLP.ligand.clash>  (124) 
0.0000

>  <Gold.PLP.ligand.torsion>  (124) 
1.0001

>  <Gold.PLP.part.buried>  (124) 
-6.5206

>  <Gold.PLP.part.hbond>  (124) 
-2.9156

>  <Gold.PLP.part.metal>  (124) 
0.0000

>  <Gold.PLP.part.nonpolar>  (124) 
-23.4080

>  <Gold.PLP.part.repulsive>  (124) 
0.3100

>  <Gold.Protein.RotatedAtoms>  (124) 


>  <Gold.Protein.RotatedTorsions>  (124) 


>  <Gold.Protein.RotatedWaterAtoms>  (124) 


>  <Gold.Version>  (124) 
5.3.0

>  <PLP.Chemscore.CHOScore>  (124) 


>  <PLP.Chemscore.Hbond>  (124) 


>  <PLP.Chemscore.Internal.Correction>  (124) 


>  <PLP.Chemscore.Metal>  (124) 


>  <PLP.Fitness>  (124) 


>  <PLP.PLP>  (124) 


>  <PLP.ligand.clash>  (124) 


>  <PLP.ligand.torsion>  (124) 


>  <PLP.part.buried>  (124) 


>  <PLP.part.hbond>  (124) 


>  <PLP.part.metal>  (124) 


>  <PLP.part.nonpolar>  (124) 


>  <PLP.part.repulsive>  (124) 


>  <RMSD>  (124) 
0.499949349045

>  <Torsion>  (124) 
159.973716791

>  <TorsionO>  (124) 
19.1052109979

>  <TorsionR>  (124) 
179.078927789

>  <Version>  (124) 


>  <product>  (124) 
52|Compound_23|Compounds_3D_F|sdf|9|dock7|1

>  <rmsd>  (124) 
-1

$$$$
1884|M3006_1781|Aromatic_primary_amines_F|sdf|361|dock3|1
     RDKit          3D

 31 34  0  0  0  0  0  0  0  0999 V2000
  -14.4210  -19.8971    8.7934 C   0  0  0  0  0  0  0  0  0  0  0  0
  -13.9762  -19.4927   10.1894 C   0  0  0  0  0  0  0  0  0  0  0  0
  -14.1356  -20.6409   11.1817 C   0  0  0  0  0  0  0  0  0  0  0  0
  -13.5197  -20.3070   12.5189 C   0  0  0  0  0  0  0  0  0  0  0  0
  -12.9307  -19.2724   12.7954 O   0  0  0  0  0  0  0  0  0  0  0  0
  -13.7110  -21.3451   13.3845 O   0  0  0  0  0  0  0  0  0  0  0  0
  -12.9425  -21.2698   14.5900 C   0  0  0  0  0  0  0  0  0  0  0  0
  -12.8849  -22.6189   15.2889 C   0  0  0  0  0  0  0  0  0  0  0  0
  -11.6552  -22.4172   16.1494 C   0  0  0  0  0  0  0  0  0  0  0  0
  -11.2420  -23.7410   16.7624 C   0  0  0  0  0  0  0  0  0  0  0  0
  -12.3024  -24.2223   17.5862 O   0  0  0  0  0  0  0  0  0  0  0  0
  -13.7888  -24.3384   16.9603 P   0  0  0  0  0  0  0  0  0  0  0  0
  -14.8775  -24.6795   17.9243 O   0  0  0  0  0  0  0  0  0  0  0  0
  -13.9839  -22.9641   16.1174 O   0  0  0  0  0  0  0  0  0  0  0  0
  -13.5991  -25.4435   15.8075 O   0  0  0  0  0  0  0  0  0  0  0  0
  -10.6922  -21.8161   15.2889 O   0  0  0  0  0  0  0  0  0  0  0  0
  -11.4338  -20.9664   14.3653 C   0  0  0  0  0  0  0  0  0  0  0  0
  -10.9052  -21.2017   13.0342 N   0  0  0  0  0  0  0  0  0  0  0  0
  -10.7814  -22.4114   12.4013 C   0  0  0  0  0  0  0  0  0  0  0  0
  -10.2640  -22.2918   11.1953 N   0  0  0  0  0  0  0  0  0  0  0  0
  -10.0274  -20.9476   11.0424 C   0  0  0  0  0  0  0  0  0  0  0  0
  -10.4203  -20.2487   12.1733 C   0  0  0  0  0  0  0  0  0  0  0  0
  -10.3338  -18.9216   12.3641 N   0  0  0  0  0  0  0  0  0  0  0  0
   -9.8057  -18.2730   11.3024 C   0  0  0  0  0  0  0  0  0  0  0  0
   -9.3808  -18.8370   10.1545 N   0  0  0  0  0  0  0  0  0  0  0  0
   -9.4895  -20.1691   10.0244 C   0  0  0  0  0  0  0  0  0  0  0  0
   -9.0330  -20.6622    8.8349 O   0  0  0  0  0  0  0  0  0  0  0  0
   -9.7222  -16.8901   11.4793 N   0  0  0  0  0  0  0  0  0  0  0  0
   -8.5796  -16.1798   11.7761 C   0  0  0  0  0  0  0  0  0  0  0  0
   -7.4445  -16.6221   11.9131 O   0  0  0  0  0  0  0  0  0  0  0  0
   -8.8524  -14.7024   11.8973 C   0  0  0  0  0  0  0  0  0  0  0  0
  1  2  1  0
  2  3  1  0
  3  4  1  0
  4  5  2  0
  4  6  1  0
  6  7  1  0
  7  8  1  0
  7 17  1  0
  8  9  1  0
  8 14  1  0
  9 10  1  0
  9 16  1  0
 10 11  1  0
 11 12  1  0
 12 13  2  0
 12 14  1  0
 12 15  1  0
 16 17  1  0
 17 18  1  0
 18 19  1  0
 18 22  1  0
 19 20  2  0
 20 21  1  0
 21 22  2  0
 21 26  1  0
 22 23  1  0
 23 24  2  0
 24 25  1  0
 24 28  1  0
 25 26  2  0
 26 27  1  0
 28 29  1  0
 29 30  2  0
 29 31  1  0
M  END
>  <Gold.Gold.Protein.RotatedWaterAtoms>  (125) 


>  <Gold.Id.Protein>  (125) 


>  <Gold.PLP.Chemscore.CHOScore>  (125) 
0.0000

>  <Gold.PLP.Chemscore.Hbond>  (125) 
1.2080

>  <Gold.PLP.Chemscore.Internal.Correction>  (125) 
0.1232

>  <Gold.PLP.Chemscore.Metal>  (125) 
0.0000

>  <Gold.PLP.Fitness>  (125) 
47.7145

>  <Gold.PLP.PLP>  (125) 
-46.0218

>  <Gold.PLP.ligand.clash>  (125) 
0.0000

>  <Gold.PLP.ligand.torsion>  (125) 
1.0272

>  <Gold.PLP.part.buried>  (125) 
-2.2958

>  <Gold.PLP.part.hbond>  (125) 
-4.0214

>  <Gold.PLP.part.metal>  (125) 
0.0000

>  <Gold.PLP.part.nonpolar>  (125) 
-41.4699

>  <Gold.PLP.part.repulsive>  (125) 
0.9524

>  <Gold.Protein.RotatedAtoms>  (125) 


>  <Gold.Protein.RotatedTorsions>  (125) 


>  <Gold.Protein.RotatedWaterAtoms>  (125) 


>  <Gold.Version>  (125) 
5.3.0

>  <PLP.Chemscore.CHOScore>  (125) 


>  <PLP.Chemscore.Hbond>  (125) 


>  <PLP.Chemscore.Internal.Correction>  (125) 


>  <PLP.Chemscore.Metal>  (125) 


>  <PLP.Fitness>  (125) 


>  <PLP.PLP>  (125) 


>  <PLP.ligand.clash>  (125) 


>  <PLP.ligand.torsion>  (125) 


>  <PLP.part.buried>  (125) 


>  <PLP.part.hbond>  (125) 


>  <PLP.part.metal>  (125) 


>  <PLP.part.nonpolar>  (125) 


>  <PLP.part.repulsive>  (125) 


>  <RMSD>  (125) 
0.291955871297

>  <Torsion>  (125) 
171.923704933

>  <TorsionO>  (125) 
6.03609353985

>  <TorsionR>  (125) 
177.959798473

>  <Version>  (125) 


>  <product>  (125) 
52|Compound_23|Compounds_3D_F|sdf|9|dock7|1

>  <rmsd>  (125) 
-1

$$$$
193|32168_281|Aromatic_primary_amines_F|sdf|39|dock6|1
     RDKit          3D

 23 25  0  0  0  0  0  0  0  0999 V2000
   -7.8439  -12.1461   11.8919 C   0  0  0  0  0  0  0  0  0  0  0  0
   -8.5691  -13.4472   11.6781 C   0  0  0  0  0  0  0  0  0  0  0  0
   -9.7886  -13.4981   11.5208 O   0  0  0  0  0  0  0  0  0  0  0  0
   -7.7264  -14.5390   11.7020 N   0  0  0  0  0  0  0  0  0  0  0  0
   -8.1889  -15.8197   11.5323 C   0  0  0  0  0  0  0  0  0  0  0  0
   -9.4747  -16.2039   11.8163 N   0  0  0  0  0  0  0  0  0  0  0  0
   -9.5964  -17.5375   11.5379 C   0  0  0  0  0  0  0  0  0  0  0  0
  -10.6643  -18.4283   11.6415 C   0  0  0  0  0  0  0  0  0  0  0  0
  -10.4051  -19.7586   11.2778 C   0  0  0  0  0  0  0  0  0  0  0  0
   -9.1530  -20.1507   10.7795 C   0  0  0  0  0  0  0  0  0  0  0  0
   -8.1017  -19.2294   10.6839 C   0  0  0  0  0  0  0  0  0  0  0  0
   -8.3349  -17.9032   11.0783 C   0  0  0  0  0  0  0  0  0  0  0  0
   -7.4773  -16.8281   11.0838 N   0  0  0  0  0  0  0  0  0  0  0  0
   -8.8530  -21.7658   10.2429 Cl  0  0  0  0  0  0  0  0  0  0  0  0
  -11.4669  -20.6323   11.3734 O   0  0  0  0  0  0  0  0  0  0  0  0
  -12.5262  -20.4408   10.5053 C   0  0  0  0  0  0  0  0  0  0  0  0
  -13.3188  -19.2846   10.5304 C   0  0  0  0  0  0  0  0  0  0  0  0
  -14.3665  -19.1344    9.6224 C   0  0  0  0  0  0  0  0  0  0  0  0
  -14.6219  -20.1279    8.6796 C   0  0  0  0  0  0  0  0  0  0  0  0
  -13.8238  -21.2756    8.6345 C   0  0  0  0  0  0  0  0  0  0  0  0
  -12.7674  -21.4342    9.5416 C   0  0  0  0  0  0  0  0  0  0  0  0
  -11.7588  -22.8458    9.4996 Cl  0  0  0  0  0  0  0  0  0  0  0  0
  -14.1988  -22.4584    7.4296 Cl  0  0  0  0  0  0  0  0  0  0  0  0
  1  2  1  0
  2  3  2  0
  2  4  1  0
  4  5  1  0
  5  6  1  0
  5 13  2  0
  6  7  1  0
  7  8  2  0
  7 12  1  0
  8  9  1  0
  9 10  2  0
  9 15  1  0
 10 11  1  0
 10 14  1  0
 11 12  2  0
 12 13  1  0
 15 16  1  0
 16 17  2  0
 16 21  1  0
 17 18  1  0
 18 19  2  0
 19 20  1  0
 20 21  2  0
 20 23  1  0
 21 22  1  0
M  END
>  <Gold.Gold.Protein.RotatedWaterAtoms>  (126) 


>  <Gold.Id.Protein>  (126) 


>  <Gold.PLP.Chemscore.CHOScore>  (126) 
0.0000

>  <Gold.PLP.Chemscore.Hbond>  (126) 
1.0000

>  <Gold.PLP.Chemscore.Internal.Correction>  (126) 
0.0086

>  <Gold.PLP.Chemscore.Metal>  (126) 
0.0000

>  <Gold.PLP.Fitness>  (126) 
50.7139

>  <Gold.PLP.PLP>  (126) 
-48.1706

>  <Gold.PLP.ligand.clash>  (126) 
0.0000

>  <Gold.PLP.ligand.torsion>  (126) 
0.2327

>  <Gold.PLP.part.buried>  (126) 
-6.5205

>  <Gold.PLP.part.hbond>  (126) 
-2.0000

>  <Gold.PLP.part.metal>  (126) 
0.0000

>  <Gold.PLP.part.nonpolar>  (126) 
-39.3857

>  <Gold.PLP.part.repulsive>  (126) 
0.3298

>  <Gold.Protein.RotatedAtoms>  (126) 


>  <Gold.Protein.RotatedTorsions>  (126) 


>  <Gold.Protein.RotatedWaterAtoms>  (126) 


>  <Gold.Version>  (126) 
5.3.0

>  <PLP.Chemscore.CHOScore>  (126) 


>  <PLP.Chemscore.Hbond>  (126) 


>  <PLP.Chemscore.Internal.Correction>  (126) 


>  <PLP.Chemscore.Metal>  (126) 


>  <PLP.Fitness>  (126) 


>  <PLP.PLP>  (126) 


>  <PLP.ligand.clash>  (126) 


>  <PLP.ligand.torsion>  (126) 


>  <PLP.part.buried>  (126) 


>  <PLP.part.hbond>  (126) 


>  <PLP.part.metal>  (126) 


>  <PLP.part.nonpolar>  (126) 


>  <PLP.part.repulsive>  (126) 


>  <RMSD>  (126) 
0.439733510035

>  <Torsion>  (126) 
177.672185574

>  <TorsionO>  (126) 
4.31728583372

>  <TorsionR>  (126) 
173.35489974

>  <Version>  (126) 


>  <product>  (126) 
52|Compound_23|Compounds_3D_F|sdf|9|dock7|1

>  <rmsd>  (126) 
-1

$$$$
35|Compound_20|Compounds_3D_F|sdf|7|dock1|1
     RDKit          3D

  8  7  0  0  0  0  0  0  0  0999 V2000
   -2.5630  -17.3516    9.4907 B   0  0  0  0  0  0  0  0  0  0  0  0
   -3.5788  -17.2902   10.6858 C   0  0  0  0  0  0  0  0  0  0  0  0
   -4.1446  -18.2974   11.0538 O   0  0  0  0  0  0  0  0  0  0  0  0
   -3.8223  -16.1167   11.3033 N   0  0  0  0  0  0  0  0  0  0  0  0
   -4.7707  -16.0595   12.4188 C   0  0  0  0  0  0  0  0  0  0  0  0
   -5.6957  -14.8538   12.2401 C   0  0  0  0  0  0  0  0  0  0  0  0
   -4.8945  -13.6231   12.2042 N   0  0  0  0  0  0  0  0  0  0  0  0
   -5.7297  -12.4433   12.4667 C   0  0  0  0  0  0  0  0  0  0  0  0
  1  2  1  0
  2  3  2  0
  2  4  1  0
  4  5  1  0
  5  6  1  0
  6  7  1  0
  7  8  1  0
M  END
>  <Gold.Gold.Protein.RotatedWaterAtoms>  (127) 


>  <Gold.Id.Protein>  (127) 


>  <Gold.PLP.Chemscore.CHOScore>  (127) 
0.0000

>  <Gold.PLP.Chemscore.Hbond>  (127) 
2.0000

>  <Gold.PLP.Chemscore.Internal.Correction>  (127) 
0.0006

>  <Gold.PLP.Chemscore.Metal>  (127) 
0.0000

>  <Gold.PLP.Fitness>  (127) 
28.5708

>  <Gold.PLP.PLP>  (127) 
-22.9101

>  <Gold.PLP.ligand.clash>  (127) 
0.0000

>  <Gold.PLP.ligand.torsion>  (127) 
0.1699

>  <Gold.PLP.part.buried>  (127) 
-4.6770

>  <Gold.PLP.part.hbond>  (127) 
-3.0140

>  <Gold.PLP.part.metal>  (127) 
0.0000

>  <Gold.PLP.part.nonpolar>  (127) 
-15.4489

>  <Gold.PLP.part.repulsive>  (127) 
0.1463

>  <Gold.Protein.RotatedAtoms>  (127) 


>  <Gold.Protein.RotatedTorsions>  (127) 


>  <Gold.Protein.RotatedWaterAtoms>  (127) 


>  <Gold.Version>  (127) 
5.3.0

>  <PLP.Chemscore.CHOScore>  (127) 


>  <PLP.Chemscore.Hbond>  (127) 


>  <PLP.Chemscore.Internal.Correction>  (127) 


>  <PLP.Chemscore.Metal>  (127) 


>  <PLP.Fitness>  (127) 


>  <PLP.PLP>  (127) 


>  <PLP.ligand.clash>  (127) 


>  <PLP.ligand.torsion>  (127) 


>  <PLP.part.buried>  (127) 


>  <PLP.part.hbond>  (127) 


>  <PLP.part.metal>  (127) 


>  <PLP.part.nonpolar>  (127) 


>  <PLP.part.repulsive>  (127) 


>  <Version>  (127) 


$$$$
94|664022_40|Aromatic_carboxylic_acids_F|sdf|24|dock1|1
     RDKit          3D

 12 12  0  0  0  0  0  0  0  0999 V2000
   -8.2596  -17.1212   11.4595 C   0  0  0  0  0  0  0  0  0  0  0  0
   -7.6366  -15.8367   11.6688 N   0  0  0  0  0  0  0  0  0  0  0  0
   -8.3409  -14.6553   11.5719 C   0  0  0  0  0  0  0  0  0  0  0  0
   -9.5296  -14.5547   11.2978 O   0  0  0  0  0  0  0  0  0  0  0  0
   -7.5420  -13.4431   11.8503 C   0  0  0  0  0  0  0  0  0  0  0  0
   -8.1627  -12.1983   11.6738 C   0  0  0  0  0  0  0  0  0  0  0  0
   -7.4390  -11.0301   11.9055 C   0  0  0  0  0  0  0  0  0  0  0  0
   -6.1069  -11.0910   12.3103 C   0  0  0  0  0  0  0  0  0  0  0  0
   -5.4897  -12.3324   12.4853 C   0  0  0  0  0  0  0  0  0  0  0  0
   -6.2035  -13.5136   12.2549 C   0  0  0  0  0  0  0  0  0  0  0  0
   -5.3062  -15.1564   12.5638 Br  0  0  0  0  0  0  0  0  0  0  0  0
   -8.1960   -9.5005   11.6887 Cl  0  0  0  0  0  0  0  0  0  0  0  0
  1  2  1  0
  2  3  1  0
  3  4  2  0
  3  5  1  0
  5  6  2  0
  5 10  1  0
  6  7  1  0
  7  8  2  0
  7 12  1  0
  8  9  1  0
  9 10  2  0
 10 11  1  0
M  END
>  <Gold.Gold.Protein.RotatedWaterAtoms>  (128) 


>  <Gold.Id.Protein>  (128) 


>  <Gold.PLP.Chemscore.CHOScore>  (128) 
0.0000

>  <Gold.PLP.Chemscore.Hbond>  (128) 
0.4160

>  <Gold.PLP.Chemscore.Internal.Correction>  (128) 
0.0004

>  <Gold.PLP.Chemscore.Metal>  (128) 
0.0000

>  <Gold.PLP.Fitness>  (128) 
48.9046

>  <Gold.PLP.PLP>  (128) 
-47.6744

>  <Gold.PLP.ligand.clash>  (128) 
0.0000

>  <Gold.PLP.ligand.torsion>  (128) 
0.0091

>  <Gold.PLP.part.buried>  (128) 
-7.3578

>  <Gold.PLP.part.hbond>  (128) 
-0.5127

>  <Gold.PLP.part.metal>  (128) 
0.0000

>  <Gold.PLP.part.nonpolar>  (128) 
-40.3098

>  <Gold.PLP.part.repulsive>  (128) 
0.1684

>  <Gold.Protein.RotatedAtoms>  (128) 


>  <Gold.Protein.RotatedTorsions>  (128) 


>  <Gold.Protein.RotatedWaterAtoms>  (128) 


>  <Gold.Version>  (128) 
5.3.0

>  <PLP.Chemscore.CHOScore>  (128) 


>  <PLP.Chemscore.Hbond>  (128) 


>  <PLP.Chemscore.Internal.Correction>  (128) 


>  <PLP.Chemscore.Metal>  (128) 


>  <PLP.Fitness>  (128) 


>  <PLP.PLP>  (128) 


>  <PLP.ligand.clash>  (128) 


>  <PLP.ligand.torsion>  (128) 


>  <PLP.part.buried>  (128) 


>  <PLP.part.hbond>  (128) 


>  <PLP.part.metal>  (128) 


>  <PLP.part.nonpolar>  (128) 


>  <PLP.part.repulsive>  (128) 


>  <RMSD>  (128) 
0.30972197429

>  <Torsion>  (128) 
172.929186758

>  <TorsionO>  (128) 
24.4968065243

>  <TorsionR>  (128) 
162.574006718

>  <Version>  (128) 


>  <product>  (128) 
35|Compound_20|Compounds_3D_F|sdf|7|dock1|1

>  <rmsd>  (128) 
-1

$$$$
110|565385_49|Aromatic_carboxylic_acids_F|sdf|29|dock1|1
     RDKit          3D

 13 13  0  0  0  0  0  0  0  0999 V2000
  -10.1118  -17.9021   11.6320 C   0  0  0  0  0  0  0  0  0  0  0  0
   -9.7537  -16.5043   11.6546 N   0  0  0  0  0  0  0  0  0  0  0  0
   -8.4330  -16.1187   11.7930 C   0  0  0  0  0  0  0  0  0  0  0  0
   -7.5159  -16.9298   11.9008 O   0  0  0  0  0  0  0  0  0  0  0  0
   -8.1234  -14.6552   11.8105 C   0  0  0  0  0  0  0  0  0  0  0  0
   -9.0636  -13.6551   11.5375 C   0  0  0  0  0  0  0  0  0  0  0  0
   -8.6966  -12.3009   11.5726 C   0  0  0  0  0  0  0  0  0  0  0  0
   -7.3879  -11.9195   11.8809 C   0  0  0  0  0  0  0  0  0  0  0  0
   -6.4486  -12.9235   12.1551 C   0  0  0  0  0  0  0  0  0  0  0  0
   -6.8098  -14.2750   12.1207 C   0  0  0  0  0  0  0  0  0  0  0  0
   -4.6444  -12.5025   12.5849 Br  0  0  0  0  0  0  0  0  0  0  0  0
   -6.9476  -10.6242   11.9372 O   0  0  0  0  0  0  0  0  0  0  0  0
   -7.9020   -9.5910   11.7256 C   0  0  0  0  0  0  0  0  0  0  0  0
  1  2  1  0
  2  3  1  0
  3  4  2  0
  3  5  1  0
  5  6  2  0
  5 10  1  0
  6  7  1  0
  7  8  2  0
  8  9  1  0
  8 12  1  0
  9 10  2  0
  9 11  1  0
 12 13  1  0
M  END
>  <Gold.Gold.Protein.RotatedWaterAtoms>  (129) 


>  <Gold.Id.Protein>  (129) 


>  <Gold.PLP.Chemscore.CHOScore>  (129) 
0.0000

>  <Gold.PLP.Chemscore.Hbond>  (129) 
1.0000

>  <Gold.PLP.Chemscore.Internal.Correction>  (129) 
0.0000

>  <Gold.PLP.Chemscore.Metal>  (129) 
0.0000

>  <Gold.PLP.Fitness>  (129) 
43.9775

>  <Gold.PLP.PLP>  (129) 
-41.0517

>  <Gold.PLP.ligand.clash>  (129) 
0.0000

>  <Gold.PLP.ligand.torsion>  (129) 
0.0371

>  <Gold.PLP.part.buried>  (129) 
-3.7367

>  <Gold.PLP.part.hbond>  (129) 
-1.0000

>  <Gold.PLP.part.metal>  (129) 
0.0000

>  <Gold.PLP.part.nonpolar>  (129) 
-36.7483

>  <Gold.PLP.part.repulsive>  (129) 
0.4054

>  <Gold.Protein.RotatedAtoms>  (129) 


>  <Gold.Protein.RotatedTorsions>  (129) 


>  <Gold.Protein.RotatedWaterAtoms>  (129) 


>  <Gold.Version>  (129) 
5.3.0

>  <PLP.Chemscore.CHOScore>  (129) 


>  <PLP.Chemscore.Hbond>  (129) 


>  <PLP.Chemscore.Internal.Correction>  (129) 


>  <PLP.Chemscore.Metal>  (129) 


>  <PLP.Fitness>  (129) 


>  <PLP.PLP>  (129) 


>  <PLP.ligand.clash>  (129) 


>  <PLP.ligand.torsion>  (129) 


>  <PLP.part.buried>  (129) 


>  <PLP.part.hbond>  (129) 


>  <PLP.part.metal>  (129) 


>  <PLP.part.nonpolar>  (129) 


>  <PLP.part.repulsive>  (129) 


>  <RMSD>  (129) 
0.319376411377

>  <Torsion>  (129) 
169.460450784

>  <TorsionO>  (129) 
9.7963905484

>  <TorsionR>  (129) 
179.256841332

>  <Version>  (129) 


>  <product>  (129) 
35|Compound_20|Compounds_3D_F|sdf|7|dock1|1

>  <rmsd>  (129) 
-1

$$$$
128|137677_56|Aromatic_carboxylic_acids_F|sdf|33|dock1|1
     RDKit          3D

 11 11  0  0  0  0  0  0  0  0999 V2000
   -8.6116  -16.1544   11.8887 C   0  0  0  0  0  0  0  0  0  0  0  0
   -7.9978  -14.8484   11.9215 N   0  0  0  0  0  0  0  0  0  0  0  0
   -8.7778  -13.7008   11.8756 C   0  0  0  0  0  0  0  0  0  0  0  0
  -10.0002  -13.7896   11.8139 O   0  0  0  0  0  0  0  0  0  0  0  0
   -8.0808  -12.3609   11.9017 C   0  0  0  0  0  0  0  0  0  0  0  0
   -8.7916  -11.1851   11.5813 C   0  0  0  0  0  0  0  0  0  0  0  0
   -8.1781   -9.9267   11.5989 C   0  0  0  0  0  0  0  0  0  0  0  0
   -6.8391   -9.8089   11.9369 C   0  0  0  0  0  0  0  0  0  0  0  0
   -6.1124  -10.9502   12.2575 C   0  0  0  0  0  0  0  0  0  0  0  0
   -6.7171  -12.2196   12.2428 C   0  0  0  0  0  0  0  0  0  0  0  0
   -5.5419  -13.6455   12.7121 Br  0  0  0  0  0  0  0  0  0  0  0  0
  1  2  1  0
  2  3  1  0
  3  4  2  0
  3  5  1  0
  5  6  2  0
  5 10  1  0
  6  7  1  0
  7  8  2  0
  8  9  1  0
  9 10  2  0
 10 11  1  0
M  END
>  <Gold.Gold.Protein.RotatedWaterAtoms>  (130) 


>  <Gold.Id.Protein>  (130) 


>  <Gold.PLP.Chemscore.CHOScore>  (130) 
0.0000

>  <Gold.PLP.Chemscore.Hbond>  (130) 
1.0000

>  <Gold.PLP.Chemscore.Internal.Correction>  (130) 
0.0000

>  <Gold.PLP.Chemscore.Metal>  (130) 
0.0000

>  <Gold.PLP.Fitness>  (130) 
45.2899

>  <Gold.PLP.PLP>  (130) 
-42.4444

>  <Gold.PLP.ligand.clash>  (130) 
0.0000

>  <Gold.PLP.ligand.torsion>  (130) 
0.0772

>  <Gold.PLP.part.buried>  (130) 
-6.4690

>  <Gold.PLP.part.hbond>  (130) 
-0.6863

>  <Gold.PLP.part.metal>  (130) 
0.0000

>  <Gold.PLP.part.nonpolar>  (130) 
-34.8280

>  <Gold.PLP.part.repulsive>  (130) 
0.1963

>  <Gold.Protein.RotatedAtoms>  (130) 


>  <Gold.Protein.RotatedTorsions>  (130) 


>  <Gold.Protein.RotatedWaterAtoms>  (130) 


>  <Gold.Version>  (130) 
5.3.0

>  <PLP.Chemscore.CHOScore>  (130) 


>  <PLP.Chemscore.Hbond>  (130) 


>  <PLP.Chemscore.Internal.Correction>  (130) 


>  <PLP.Chemscore.Metal>  (130) 


>  <PLP.Fitness>  (130) 


>  <PLP.PLP>  (130) 


>  <PLP.ligand.clash>  (130) 


>  <PLP.ligand.torsion>  (130) 


>  <PLP.part.buried>  (130) 


>  <PLP.part.hbond>  (130) 


>  <PLP.part.metal>  (130) 


>  <PLP.part.nonpolar>  (130) 


>  <PLP.part.repulsive>  (130) 


>  <RMSD>  (130) 
0.428070490903

>  <Torsion>  (130) 
152.444048788

>  <TorsionO>  (130) 
39.0580871276

>  <TorsionR>  (130) 
168.497864085

>  <Version>  (130) 


>  <product>  (130) 
35|Compound_20|Compounds_3D_F|sdf|7|dock1|1

>  <rmsd>  (130) 
-1

$$$$
974|750794_1404|Aromatic_primary_amines_F|sdf|194|dock3|1
     RDKit          3D

 14 14  0  0  0  0  0  0  0  0999 V2000
  -13.6355  -18.1936    9.4145 C   0  0  0  0  0  0  0  0  0  0  0  0
  -13.2544  -19.4497   10.1732 C   0  0  0  0  0  0  0  0  0  0  0  0
  -11.8731  -19.3506   10.5383 O   0  0  0  0  0  0  0  0  0  0  0  0
  -11.6148  -18.5085   11.5823 C   0  0  0  0  0  0  0  0  0  0  0  0
  -12.3947  -18.2810   12.5004 O   0  0  0  0  0  0  0  0  0  0  0  0
  -10.3031  -17.8985   11.4902 C   0  0  0  0  0  0  0  0  0  0  0  0
   -9.1673  -18.4974   10.9931 C   0  0  0  0  0  0  0  0  0  0  0  0
   -8.1448  -17.6055   11.0758 O   0  0  0  0  0  0  0  0  0  0  0  0
   -8.7110  -16.4917   11.6237 C   0  0  0  0  0  0  0  0  0  0  0  0
   -9.9933  -16.6110   11.8915 N   0  0  0  0  0  0  0  0  0  0  0  0
   -7.9611  -15.3718   11.8549 N   0  0  0  0  0  0  0  0  0  0  0  0
   -8.5046  -14.1249   12.0676 C   0  0  0  0  0  0  0  0  0  0  0  0
   -9.6950  -13.8313   12.1035 O   0  0  0  0  0  0  0  0  0  0  0  0
   -7.4448  -13.0785   12.3021 C   0  0  0  0  0  0  0  0  0  0  0  0
  1  2  1  0
  2  3  1  0
  3  4  1  0
  4  5  2  0
  4  6  1  0
  6  7  2  0
  6 10  1  0
  7  8  1  0
  8  9  1  0
  9 10  2  0
  9 11  1  0
 11 12  1  0
 12 13  2  0
 12 14  1  0
M  END
>  <Gold.Gold.Protein.RotatedWaterAtoms>  (131) 


>  <Gold.Id.Protein>  (131) 


>  <Gold.PLP.Chemscore.CHOScore>  (131) 
0.0000

>  <Gold.PLP.Chemscore.Hbond>  (131) 
2.0000

>  <Gold.PLP.Chemscore.Internal.Correction>  (131) 
0.0053

>  <Gold.PLP.Chemscore.Metal>  (131) 
0.0000

>  <Gold.PLP.Fitness>  (131) 
36.8047

>  <Gold.PLP.PLP>  (131) 
-32.7996

>  <Gold.PLP.ligand.clash>  (131) 
0.0000

>  <Gold.PLP.ligand.torsion>  (131) 
1.0001

>  <Gold.PLP.part.buried>  (131) 
-6.5206

>  <Gold.PLP.part.hbond>  (131) 
-2.9156

>  <Gold.PLP.part.metal>  (131) 
0.0000

>  <Gold.PLP.part.nonpolar>  (131) 
-23.4080

>  <Gold.PLP.part.repulsive>  (131) 
0.3100

>  <Gold.Protein.RotatedAtoms>  (131) 


>  <Gold.Protein.RotatedTorsions>  (131) 


>  <Gold.Protein.RotatedWaterAtoms>  (131) 


>  <Gold.Version>  (131) 
5.3.0

>  <PLP.Chemscore.CHOScore>  (131) 


>  <PLP.Chemscore.Hbond>  (131) 


>  <PLP.Chemscore.Internal.Correction>  (131) 


>  <PLP.Chemscore.Metal>  (131) 


>  <PLP.Fitness>  (131) 


>  <PLP.PLP>  (131) 


>  <PLP.ligand.clash>  (131) 


>  <PLP.ligand.torsion>  (131) 


>  <PLP.part.buried>  (131) 


>  <PLP.part.hbond>  (131) 


>  <PLP.part.metal>  (131) 


>  <PLP.part.nonpolar>  (131) 


>  <PLP.part.repulsive>  (131) 


>  <RMSD>  (131) 
0.499949349045

>  <Torsion>  (131) 
159.973716791

>  <TorsionO>  (131) 
19.1052109979

>  <TorsionR>  (131) 
179.078927789

>  <Version>  (131) 


>  <product>  (131) 
35|Compound_20|Compounds_3D_F|sdf|7|dock1|1

>  <rmsd>  (131) 
-1

$$$$
1884|M3006_1781|Aromatic_primary_amines_F|sdf|361|dock3|1
     RDKit          3D

 31 34  0  0  0  0  0  0  0  0999 V2000
  -14.4210  -19.8971    8.7934 C   0  0  0  0  0  0  0  0  0  0  0  0
  -13.9762  -19.4927   10.1894 C   0  0  0  0  0  0  0  0  0  0  0  0
  -14.1356  -20.6409   11.1817 C   0  0  0  0  0  0  0  0  0  0  0  0
  -13.5197  -20.3070   12.5189 C   0  0  0  0  0  0  0  0  0  0  0  0
  -12.9307  -19.2724   12.7954 O   0  0  0  0  0  0  0  0  0  0  0  0
  -13.7110  -21.3451   13.3845 O   0  0  0  0  0  0  0  0  0  0  0  0
  -12.9425  -21.2698   14.5900 C   0  0  0  0  0  0  0  0  0  0  0  0
  -12.8849  -22.6189   15.2889 C   0  0  0  0  0  0  0  0  0  0  0  0
  -11.6552  -22.4172   16.1494 C   0  0  0  0  0  0  0  0  0  0  0  0
  -11.2420  -23.7410   16.7624 C   0  0  0  0  0  0  0  0  0  0  0  0
  -12.3024  -24.2223   17.5862 O   0  0  0  0  0  0  0  0  0  0  0  0
  -13.7888  -24.3384   16.9603 P   0  0  0  0  0  0  0  0  0  0  0  0
  -14.8775  -24.6795   17.9243 O   0  0  0  0  0  0  0  0  0  0  0  0
  -13.9839  -22.9641   16.1174 O   0  0  0  0  0  0  0  0  0  0  0  0
  -13.5991  -25.4435   15.8075 O   0  0  0  0  0  0  0  0  0  0  0  0
  -10.6922  -21.8161   15.2889 O   0  0  0  0  0  0  0  0  0  0  0  0
  -11.4338  -20.9664   14.3653 C   0  0  0  0  0  0  0  0  0  0  0  0
  -10.9052  -21.2017   13.0342 N   0  0  0  0  0  0  0  0  0  0  0  0
  -10.7814  -22.4114   12.4013 C   0  0  0  0  0  0  0  0  0  0  0  0
  -10.2640  -22.2918   11.1953 N   0  0  0  0  0  0  0  0  0  0  0  0
  -10.0274  -20.9476   11.0424 C   0  0  0  0  0  0  0  0  0  0  0  0
  -10.4203  -20.2487   12.1733 C   0  0  0  0  0  0  0  0  0  0  0  0
  -10.3338  -18.9216   12.3641 N   0  0  0  0  0  0  0  0  0  0  0  0
   -9.8057  -18.2730   11.3024 C   0  0  0  0  0  0  0  0  0  0  0  0
   -9.3808  -18.8370   10.1545 N   0  0  0  0  0  0  0  0  0  0  0  0
   -9.4895  -20.1691   10.0244 C   0  0  0  0  0  0  0  0  0  0  0  0
   -9.0330  -20.6622    8.8349 O   0  0  0  0  0  0  0  0  0  0  0  0
   -9.7222  -16.8901   11.4793 N   0  0  0  0  0  0  0  0  0  0  0  0
   -8.5796  -16.1798   11.7761 C   0  0  0  0  0  0  0  0  0  0  0  0
   -7.4445  -16.6221   11.9131 O   0  0  0  0  0  0  0  0  0  0  0  0
   -8.8524  -14.7024   11.8973 C   0  0  0  0  0  0  0  0  0  0  0  0
  1  2  1  0
  2  3  1  0
  3  4  1  0
  4  5  2  0
  4  6  1  0
  6  7  1  0
  7  8  1  0
  7 17  1  0
  8  9  1  0
  8 14  1  0
  9 10  1  0
  9 16  1  0
 10 11  1  0
 11 12  1  0
 12 13  2  0
 12 14  1  0
 12 15  1  0
 16 17  1  0
 17 18  1  0
 18 19  1  0
 18 22  1  0
 19 20  2  0
 20 21  1  0
 21 22  2  0
 21 26  1  0
 22 23  1  0
 23 24  2  0
 24 25  1  0
 24 28  1  0
 25 26  2  0
 26 27  1  0
 28 29  1  0
 29 30  2  0
 29 31  1  0
M  END
>  <Gold.Gold.Protein.RotatedWaterAtoms>  (132) 


>  <Gold.Id.Protein>  (132) 


>  <Gold.PLP.Chemscore.CHOScore>  (132) 
0.0000

>  <Gold.PLP.Chemscore.Hbond>  (132) 
1.2080

>  <Gold.PLP.Chemscore.Internal.Correction>  (132) 
0.1232

>  <Gold.PLP.Chemscore.Metal>  (132) 
0.0000

>  <Gold.PLP.Fitness>  (132) 
47.7145

>  <Gold.PLP.PLP>  (132) 
-46.0218

>  <Gold.PLP.ligand.clash>  (132) 
0.0000

>  <Gold.PLP.ligand.torsion>  (132) 
1.0272

>  <Gold.PLP.part.buried>  (132) 
-2.2958

>  <Gold.PLP.part.hbond>  (132) 
-4.0214

>  <Gold.PLP.part.metal>  (132) 
0.0000

>  <Gold.PLP.part.nonpolar>  (132) 
-41.4699

>  <Gold.PLP.part.repulsive>  (132) 
0.9524

>  <Gold.Protein.RotatedAtoms>  (132) 


>  <Gold.Protein.RotatedTorsions>  (132) 


>  <Gold.Protein.RotatedWaterAtoms>  (132) 


>  <Gold.Version>  (132) 
5.3.0

>  <PLP.Chemscore.CHOScore>  (132) 


>  <PLP.Chemscore.Hbond>  (132) 


>  <PLP.Chemscore.Internal.Correction>  (132) 


>  <PLP.Chemscore.Metal>  (132) 


>  <PLP.Fitness>  (132) 


>  <PLP.PLP>  (132) 


>  <PLP.ligand.clash>  (132) 


>  <PLP.ligand.torsion>  (132) 


>  <PLP.part.buried>  (132) 


>  <PLP.part.hbond>  (132) 


>  <PLP.part.metal>  (132) 


>  <PLP.part.nonpolar>  (132) 


>  <PLP.part.repulsive>  (132) 


>  <RMSD>  (132) 
0.291955871297

>  <Torsion>  (132) 
171.923704933

>  <TorsionO>  (132) 
6.03609353985

>  <TorsionR>  (132) 
177.959798473

>  <Version>  (132) 


>  <product>  (132) 
35|Compound_20|Compounds_3D_F|sdf|7|dock1|1

>  <rmsd>  (132) 
-1

$$$$
193|32168_281|Aromatic_primary_amines_F|sdf|39|dock6|1
     RDKit          3D

 23 25  0  0  0  0  0  0  0  0999 V2000
   -7.8439  -12.1461   11.8919 C   0  0  0  0  0  0  0  0  0  0  0  0
   -8.5691  -13.4472   11.6781 C   0  0  0  0  0  0  0  0  0  0  0  0
   -9.7886  -13.4981   11.5208 O   0  0  0  0  0  0  0  0  0  0  0  0
   -7.7264  -14.5390   11.7020 N   0  0  0  0  0  0  0  0  0  0  0  0
   -8.1889  -15.8197   11.5323 C   0  0  0  0  0  0  0  0  0  0  0  0
   -9.4747  -16.2039   11.8163 N   0  0  0  0  0  0  0  0  0  0  0  0
   -9.5964  -17.5375   11.5379 C   0  0  0  0  0  0  0  0  0  0  0  0
  -10.6643  -18.4283   11.6415 C   0  0  0  0  0  0  0  0  0  0  0  0
  -10.4051  -19.7586   11.2778 C   0  0  0  0  0  0  0  0  0  0  0  0
   -9.1530  -20.1507   10.7795 C   0  0  0  0  0  0  0  0  0  0  0  0
   -8.1017  -19.2294   10.6839 C   0  0  0  0  0  0  0  0  0  0  0  0
   -8.3349  -17.9032   11.0783 C   0  0  0  0  0  0  0  0  0  0  0  0
   -7.4773  -16.8281   11.0838 N   0  0  0  0  0  0  0  0  0  0  0  0
   -8.8530  -21.7658   10.2429 Cl  0  0  0  0  0  0  0  0  0  0  0  0
  -11.4669  -20.6323   11.3734 O   0  0  0  0  0  0  0  0  0  0  0  0
  -12.5262  -20.4408   10.5053 C   0  0  0  0  0  0  0  0  0  0  0  0
  -13.3188  -19.2846   10.5304 C   0  0  0  0  0  0  0  0  0  0  0  0
  -14.3665  -19.1344    9.6224 C   0  0  0  0  0  0  0  0  0  0  0  0
  -14.6219  -20.1279    8.6796 C   0  0  0  0  0  0  0  0  0  0  0  0
  -13.8238  -21.2756    8.6345 C   0  0  0  0  0  0  0  0  0  0  0  0
  -12.7674  -21.4342    9.5416 C   0  0  0  0  0  0  0  0  0  0  0  0
  -11.7588  -22.8458    9.4996 Cl  0  0  0  0  0  0  0  0  0  0  0  0
  -14.1988  -22.4584    7.4296 Cl  0  0  0  0  0  0  0  0  0  0  0  0
  1  2  1  0
  2  3  2  0
  2  4  1  0
  4  5  1  0
  5  6  1  0
  5 13  2  0
  6  7  1  0
  7  8  2  0
  7 12  1  0
  8  9  1  0
  9 10  2  0
  9 15  1  0
 10 11  1  0
 10 14  1  0
 11 12  2  0
 12 13  1  0
 15 16  1  0
 16 17  2  0
 16 21  1  0
 17 18  1  0
 18 19  2  0
 19 20  1  0
 20 21  2  0
 20 23  1  0
 21 22  1  0
M  END
>  <Gold.Gold.Protein.RotatedWaterAtoms>  (133) 


>  <Gold.Id.Protein>  (133) 


>  <Gold.PLP.Chemscore.CHOScore>  (133) 
0.0000

>  <Gold.PLP.Chemscore.Hbond>  (133) 
1.0000

>  <Gold.PLP.Chemscore.Internal.Correction>  (133) 
0.0086

>  <Gold.PLP.Chemscore.Metal>  (133) 
0.0000

>  <Gold.PLP.Fitness>  (133) 
50.7139

>  <Gold.PLP.PLP>  (133) 
-48.1706

>  <Gold.PLP.ligand.clash>  (133) 
0.0000

>  <Gold.PLP.ligand.torsion>  (133) 
0.2327

>  <Gold.PLP.part.buried>  (133) 
-6.5205

>  <Gold.PLP.part.hbond>  (133) 
-2.0000

>  <Gold.PLP.part.metal>  (133) 
0.0000

>  <Gold.PLP.part.nonpolar>  (133) 
-39.3857

>  <Gold.PLP.part.repulsive>  (133) 
0.3298

>  <Gold.Protein.RotatedAtoms>  (133) 


>  <Gold.Protein.RotatedTorsions>  (133) 


>  <Gold.Protein.RotatedWaterAtoms>  (133) 


>  <Gold.Version>  (133) 
5.3.0

>  <PLP.Chemscore.CHOScore>  (133) 


>  <PLP.Chemscore.Hbond>  (133) 


>  <PLP.Chemscore.Internal.Correction>  (133) 


>  <PLP.Chemscore.Metal>  (133) 


>  <PLP.Fitness>  (133) 


>  <PLP.PLP>  (133) 


>  <PLP.ligand.clash>  (133) 


>  <PLP.ligand.torsion>  (133) 


>  <PLP.part.buried>  (133) 


>  <PLP.part.hbond>  (133) 


>  <PLP.part.metal>  (133) 


>  <PLP.part.nonpolar>  (133) 


>  <PLP.part.repulsive>  (133) 


>  <RMSD>  (133) 
0.439733510035

>  <Torsion>  (133) 
177.672185574

>  <TorsionO>  (133) 
4.31728583372

>  <TorsionR>  (133) 
173.35489974

>  <Version>  (133) 


>  <product>  (133) 
35|Compound_20|Compounds_3D_F|sdf|7|dock1|1

>  <rmsd>  (133) 
-1

$$$$
3|Compound_3|Compounds_3D_F|sdf|2|dock1|1
     RDKit          3D

  9  8  0  0  0  0  0  0  0  0999 V2000
   -4.7876  -13.0755   12.1990 O   0  0  0  0  0  0  0  0  0  0  0  0
   -5.5326  -14.1735   12.7286 C   0  0  0  0  0  0  0  0  0  0  0  0
   -6.5660  -14.6333   11.6989 C   0  0  0  0  0  0  0  0  0  0  0  0
   -5.8980  -14.9042   10.4236 N   0  0  0  0  0  0  0  0  0  0  0  0
   -6.6110  -15.3496    9.3703 C   0  0  0  0  0  0  0  0  0  0  0  0
   -7.8066  -15.5260    9.4781 O   0  0  0  0  0  0  0  0  0  0  0  0
   -5.8955  -15.6393    8.0036 B   0  0  0  0  0  0  0  0  0  0  0  0
   -7.2491  -15.9089   12.1970 C   0  0  0  0  0  0  0  0  0  0  0  0
   -7.6142  -13.5372   11.5026 C   0  0  0  0  0  0  0  0  0  0  0  0
  1  2  1  0
  2  3  1  0
  3  4  1  0
  3  8  1  0
  3  9  1  0
  4  5  1  0
  5  6  2  0
  5  7  1  0
M  END
>  <Gold.Gold.Protein.RotatedWaterAtoms>  (134) 


>  <Gold.Id.Protein>  (134) 


>  <Gold.PLP.Chemscore.CHOScore>  (134) 
0.0000

>  <Gold.PLP.Chemscore.Hbond>  (134) 
2.0000

>  <Gold.PLP.Chemscore.Internal.Correction>  (134) 
0.0000

>  <Gold.PLP.Chemscore.Metal>  (134) 
0.0000

>  <Gold.PLP.Fitness>  (134) 
30.2559

>  <Gold.PLP.PLP>  (134) 
-24.3274

>  <Gold.PLP.ligand.clash>  (134) 
0.0000

>  <Gold.PLP.ligand.torsion>  (134) 
0.0358

>  <Gold.PLP.part.buried>  (134) 
-3.2521

>  <Gold.PLP.part.hbond>  (134) 
-2.9654

>  <Gold.PLP.part.metal>  (134) 
0.0000

>  <Gold.PLP.part.nonpolar>  (134) 
-17.7838

>  <Gold.PLP.part.repulsive>  (134) 
0.6396

>  <Gold.Protein.RotatedAtoms>  (134) 


>  <Gold.Protein.RotatedTorsions>  (134) 


>  <Gold.Protein.RotatedWaterAtoms>  (134) 


>  <Gold.Version>  (134) 
5.3.0

>  <PLP.Chemscore.CHOScore>  (134) 


>  <PLP.Chemscore.Hbond>  (134) 


>  <PLP.Chemscore.Internal.Correction>  (134) 


>  <PLP.Chemscore.Metal>  (134) 


>  <PLP.Fitness>  (134) 


>  <PLP.PLP>  (134) 


>  <PLP.ligand.clash>  (134) 


>  <PLP.ligand.torsion>  (134) 


>  <PLP.part.buried>  (134) 


>  <PLP.part.hbond>  (134) 


>  <PLP.part.metal>  (134) 


>  <PLP.part.nonpolar>  (134) 


>  <PLP.part.repulsive>  (134) 


>  <Version>  (134) 


$$$$
94|664022_40|Aromatic_carboxylic_acids_F|sdf|24|dock1|1
     RDKit          3D

 12 12  0  0  0  0  0  0  0  0999 V2000
   -8.2596  -17.1212   11.4595 C   0  0  0  0  0  0  0  0  0  0  0  0
   -7.6366  -15.8367   11.6688 N   0  0  0  0  0  0  0  0  0  0  0  0
   -8.3409  -14.6553   11.5719 C   0  0  0  0  0  0  0  0  0  0  0  0
   -9.5296  -14.5547   11.2978 O   0  0  0  0  0  0  0  0  0  0  0  0
   -7.5420  -13.4431   11.8503 C   0  0  0  0  0  0  0  0  0  0  0  0
   -8.1627  -12.1983   11.6738 C   0  0  0  0  0  0  0  0  0  0  0  0
   -7.4390  -11.0301   11.9055 C   0  0  0  0  0  0  0  0  0  0  0  0
   -6.1069  -11.0910   12.3103 C   0  0  0  0  0  0  0  0  0  0  0  0
   -5.4897  -12.3324   12.4853 C   0  0  0  0  0  0  0  0  0  0  0  0
   -6.2035  -13.5136   12.2549 C   0  0  0  0  0  0  0  0  0  0  0  0
   -5.3062  -15.1564   12.5638 Br  0  0  0  0  0  0  0  0  0  0  0  0
   -8.1960   -9.5005   11.6887 Cl  0  0  0  0  0  0  0  0  0  0  0  0
  1  2  1  0
  2  3  1  0
  3  4  2  0
  3  5  1  0
  5  6  2  0
  5 10  1  0
  6  7  1  0
  7  8  2  0
  7 12  1  0
  8  9  1  0
  9 10  2  0
 10 11  1  0
M  END
>  <Gold.Gold.Protein.RotatedWaterAtoms>  (135) 


>  <Gold.Id.Protein>  (135) 


>  <Gold.PLP.Chemscore.CHOScore>  (135) 
0.0000

>  <Gold.PLP.Chemscore.Hbond>  (135) 
0.4160

>  <Gold.PLP.Chemscore.Internal.Correction>  (135) 
0.0004

>  <Gold.PLP.Chemscore.Metal>  (135) 
0.0000

>  <Gold.PLP.Fitness>  (135) 
48.9046

>  <Gold.PLP.PLP>  (135) 
-47.6744

>  <Gold.PLP.ligand.clash>  (135) 
0.0000

>  <Gold.PLP.ligand.torsion>  (135) 
0.0091

>  <Gold.PLP.part.buried>  (135) 
-7.3578

>  <Gold.PLP.part.hbond>  (135) 
-0.5127

>  <Gold.PLP.part.metal>  (135) 
0.0000

>  <Gold.PLP.part.nonpolar>  (135) 
-40.3098

>  <Gold.PLP.part.repulsive>  (135) 
0.1684

>  <Gold.Protein.RotatedAtoms>  (135) 


>  <Gold.Protein.RotatedTorsions>  (135) 


>  <Gold.Protein.RotatedWaterAtoms>  (135) 


>  <Gold.Version>  (135) 
5.3.0

>  <PLP.Chemscore.CHOScore>  (135) 


>  <PLP.Chemscore.Hbond>  (135) 


>  <PLP.Chemscore.Internal.Correction>  (135) 


>  <PLP.Chemscore.Metal>  (135) 


>  <PLP.Fitness>  (135) 


>  <PLP.PLP>  (135) 


>  <PLP.ligand.clash>  (135) 


>  <PLP.ligand.torsion>  (135) 


>  <PLP.part.buried>  (135) 


>  <PLP.part.hbond>  (135) 


>  <PLP.part.metal>  (135) 


>  <PLP.part.nonpolar>  (135) 


>  <PLP.part.repulsive>  (135) 


>  <RMSD>  (135) 
0.30972197429

>  <Torsion>  (135) 
172.929186758

>  <TorsionO>  (135) 
24.4968065243

>  <TorsionR>  (135) 
162.574006718

>  <Version>  (135) 


>  <product>  (135) 
3|Compound_3|Compounds_3D_F|sdf|2|dock1|1

>  <rmsd>  (135) 
-1

$$$$
110|565385_49|Aromatic_carboxylic_acids_F|sdf|29|dock1|1
     RDKit          3D

 13 13  0  0  0  0  0  0  0  0999 V2000
  -10.1118  -17.9021   11.6320 C   0  0  0  0  0  0  0  0  0  0  0  0
   -9.7537  -16.5043   11.6546 N   0  0  0  0  0  0  0  0  0  0  0  0
   -8.4330  -16.1187   11.7930 C   0  0  0  0  0  0  0  0  0  0  0  0
   -7.5159  -16.9298   11.9008 O   0  0  0  0  0  0  0  0  0  0  0  0
   -8.1234  -14.6552   11.8105 C   0  0  0  0  0  0  0  0  0  0  0  0
   -9.0636  -13.6551   11.5375 C   0  0  0  0  0  0  0  0  0  0  0  0
   -8.6966  -12.3009   11.5726 C   0  0  0  0  0  0  0  0  0  0  0  0
   -7.3879  -11.9195   11.8809 C   0  0  0  0  0  0  0  0  0  0  0  0
   -6.4486  -12.9235   12.1551 C   0  0  0  0  0  0  0  0  0  0  0  0
   -6.8098  -14.2750   12.1207 C   0  0  0  0  0  0  0  0  0  0  0  0
   -4.6444  -12.5025   12.5849 Br  0  0  0  0  0  0  0  0  0  0  0  0
   -6.9476  -10.6242   11.9372 O   0  0  0  0  0  0  0  0  0  0  0  0
   -7.9020   -9.5910   11.7256 C   0  0  0  0  0  0  0  0  0  0  0  0
  1  2  1  0
  2  3  1  0
  3  4  2  0
  3  5  1  0
  5  6  2  0
  5 10  1  0
  6  7  1  0
  7  8  2  0
  8  9  1  0
  8 12  1  0
  9 10  2  0
  9 11  1  0
 12 13  1  0
M  END
>  <Gold.Gold.Protein.RotatedWaterAtoms>  (136) 


>  <Gold.Id.Protein>  (136) 


>  <Gold.PLP.Chemscore.CHOScore>  (136) 
0.0000

>  <Gold.PLP.Chemscore.Hbond>  (136) 
1.0000

>  <Gold.PLP.Chemscore.Internal.Correction>  (136) 
0.0000

>  <Gold.PLP.Chemscore.Metal>  (136) 
0.0000

>  <Gold.PLP.Fitness>  (136) 
43.9775

>  <Gold.PLP.PLP>  (136) 
-41.0517

>  <Gold.PLP.ligand.clash>  (136) 
0.0000

>  <Gold.PLP.ligand.torsion>  (136) 
0.0371

>  <Gold.PLP.part.buried>  (136) 
-3.7367

>  <Gold.PLP.part.hbond>  (136) 
-1.0000

>  <Gold.PLP.part.metal>  (136) 
0.0000

>  <Gold.PLP.part.nonpolar>  (136) 
-36.7483

>  <Gold.PLP.part.repulsive>  (136) 
0.4054

>  <Gold.Protein.RotatedAtoms>  (136) 


>  <Gold.Protein.RotatedTorsions>  (136) 


>  <Gold.Protein.RotatedWaterAtoms>  (136) 


>  <Gold.Version>  (136) 
5.3.0

>  <PLP.Chemscore.CHOScore>  (136) 


>  <PLP.Chemscore.Hbond>  (136) 


>  <PLP.Chemscore.Internal.Correction>  (136) 


>  <PLP.Chemscore.Metal>  (136) 


>  <PLP.Fitness>  (136) 


>  <PLP.PLP>  (136) 


>  <PLP.ligand.clash>  (136) 


>  <PLP.ligand.torsion>  (136) 


>  <PLP.part.buried>  (136) 


>  <PLP.part.hbond>  (136) 


>  <PLP.part.metal>  (136) 


>  <PLP.part.nonpolar>  (136) 


>  <PLP.part.repulsive>  (136) 


>  <RMSD>  (136) 
0.319376411377

>  <Torsion>  (136) 
169.460450784

>  <TorsionO>  (136) 
9.7963905484

>  <TorsionR>  (136) 
179.256841332

>  <Version>  (136) 


>  <product>  (136) 
3|Compound_3|Compounds_3D_F|sdf|2|dock1|1

>  <rmsd>  (136) 
-1

$$$$
128|137677_56|Aromatic_carboxylic_acids_F|sdf|33|dock1|1
     RDKit          3D

 11 11  0  0  0  0  0  0  0  0999 V2000
   -8.6116  -16.1544   11.8887 C   0  0  0  0  0  0  0  0  0  0  0  0
   -7.9978  -14.8484   11.9215 N   0  0  0  0  0  0  0  0  0  0  0  0
   -8.7778  -13.7008   11.8756 C   0  0  0  0  0  0  0  0  0  0  0  0
  -10.0002  -13.7896   11.8139 O   0  0  0  0  0  0  0  0  0  0  0  0
   -8.0808  -12.3609   11.9017 C   0  0  0  0  0  0  0  0  0  0  0  0
   -8.7916  -11.1851   11.5813 C   0  0  0  0  0  0  0  0  0  0  0  0
   -8.1781   -9.9267   11.5989 C   0  0  0  0  0  0  0  0  0  0  0  0
   -6.8391   -9.8089   11.9369 C   0  0  0  0  0  0  0  0  0  0  0  0
   -6.1124  -10.9502   12.2575 C   0  0  0  0  0  0  0  0  0  0  0  0
   -6.7171  -12.2196   12.2428 C   0  0  0  0  0  0  0  0  0  0  0  0
   -5.5419  -13.6455   12.7121 Br  0  0  0  0  0  0  0  0  0  0  0  0
  1  2  1  0
  2  3  1  0
  3  4  2  0
  3  5  1  0
  5  6  2  0
  5 10  1  0
  6  7  1  0
  7  8  2  0
  8  9  1  0
  9 10  2  0
 10 11  1  0
M  END
>  <Gold.Gold.Protein.RotatedWaterAtoms>  (137) 


>  <Gold.Id.Protein>  (137) 


>  <Gold.PLP.Chemscore.CHOScore>  (137) 
0.0000

>  <Gold.PLP.Chemscore.Hbond>  (137) 
1.0000

>  <Gold.PLP.Chemscore.Internal.Correction>  (137) 
0.0000

>  <Gold.PLP.Chemscore.Metal>  (137) 
0.0000

>  <Gold.PLP.Fitness>  (137) 
45.2899

>  <Gold.PLP.PLP>  (137) 
-42.4444

>  <Gold.PLP.ligand.clash>  (137) 
0.0000

>  <Gold.PLP.ligand.torsion>  (137) 
0.0772

>  <Gold.PLP.part.buried>  (137) 
-6.4690

>  <Gold.PLP.part.hbond>  (137) 
-0.6863

>  <Gold.PLP.part.metal>  (137) 
0.0000

>  <Gold.PLP.part.nonpolar>  (137) 
-34.8280

>  <Gold.PLP.part.repulsive>  (137) 
0.1963

>  <Gold.Protein.RotatedAtoms>  (137) 


>  <Gold.Protein.RotatedTorsions>  (137) 


>  <Gold.Protein.RotatedWaterAtoms>  (137) 


>  <Gold.Version>  (137) 
5.3.0

>  <PLP.Chemscore.CHOScore>  (137) 


>  <PLP.Chemscore.Hbond>  (137) 


>  <PLP.Chemscore.Internal.Correction>  (137) 


>  <PLP.Chemscore.Metal>  (137) 


>  <PLP.Fitness>  (137) 


>  <PLP.PLP>  (137) 


>  <PLP.ligand.clash>  (137) 


>  <PLP.ligand.torsion>  (137) 


>  <PLP.part.buried>  (137) 


>  <PLP.part.hbond>  (137) 


>  <PLP.part.metal>  (137) 


>  <PLP.part.nonpolar>  (137) 


>  <PLP.part.repulsive>  (137) 


>  <RMSD>  (137) 
0.428070490903

>  <Torsion>  (137) 
152.444048788

>  <TorsionO>  (137) 
39.0580871276

>  <TorsionR>  (137) 
168.497864085

>  <Version>  (137) 


>  <product>  (137) 
3|Compound_3|Compounds_3D_F|sdf|2|dock1|1

>  <rmsd>  (137) 
-1

$$$$
974|750794_1404|Aromatic_primary_amines_F|sdf|194|dock3|1
     RDKit          3D

 14 14  0  0  0  0  0  0  0  0999 V2000
  -13.6355  -18.1936    9.4145 C   0  0  0  0  0  0  0  0  0  0  0  0
  -13.2544  -19.4497   10.1732 C   0  0  0  0  0  0  0  0  0  0  0  0
  -11.8731  -19.3506   10.5383 O   0  0  0  0  0  0  0  0  0  0  0  0
  -11.6148  -18.5085   11.5823 C   0  0  0  0  0  0  0  0  0  0  0  0
  -12.3947  -18.2810   12.5004 O   0  0  0  0  0  0  0  0  0  0  0  0
  -10.3031  -17.8985   11.4902 C   0  0  0  0  0  0  0  0  0  0  0  0
   -9.1673  -18.4974   10.9931 C   0  0  0  0  0  0  0  0  0  0  0  0
   -8.1448  -17.6055   11.0758 O   0  0  0  0  0  0  0  0  0  0  0  0
   -8.7110  -16.4917   11.6237 C   0  0  0  0  0  0  0  0  0  0  0  0
   -9.9933  -16.6110   11.8915 N   0  0  0  0  0  0  0  0  0  0  0  0
   -7.9611  -15.3718   11.8549 N   0  0  0  0  0  0  0  0  0  0  0  0
   -8.5046  -14.1249   12.0676 C   0  0  0  0  0  0  0  0  0  0  0  0
   -9.6950  -13.8313   12.1035 O   0  0  0  0  0  0  0  0  0  0  0  0
   -7.4448  -13.0785   12.3021 C   0  0  0  0  0  0  0  0  0  0  0  0
  1  2  1  0
  2  3  1  0
  3  4  1  0
  4  5  2  0
  4  6  1  0
  6  7  2  0
  6 10  1  0
  7  8  1  0
  8  9  1  0
  9 10  2  0
  9 11  1  0
 11 12  1  0
 12 13  2  0
 12 14  1  0
M  END
>  <Gold.Gold.Protein.RotatedWaterAtoms>  (138) 


>  <Gold.Id.Protein>  (138) 


>  <Gold.PLP.Chemscore.CHOScore>  (138) 
0.0000

>  <Gold.PLP.Chemscore.Hbond>  (138) 
2.0000

>  <Gold.PLP.Chemscore.Internal.Correction>  (138) 
0.0053

>  <Gold.PLP.Chemscore.Metal>  (138) 
0.0000

>  <Gold.PLP.Fitness>  (138) 
36.8047

>  <Gold.PLP.PLP>  (138) 
-32.7996

>  <Gold.PLP.ligand.clash>  (138) 
0.0000

>  <Gold.PLP.ligand.torsion>  (138) 
1.0001

>  <Gold.PLP.part.buried>  (138) 
-6.5206

>  <Gold.PLP.part.hbond>  (138) 
-2.9156

>  <Gold.PLP.part.metal>  (138) 
0.0000

>  <Gold.PLP.part.nonpolar>  (138) 
-23.4080

>  <Gold.PLP.part.repulsive>  (138) 
0.3100

>  <Gold.Protein.RotatedAtoms>  (138) 


>  <Gold.Protein.RotatedTorsions>  (138) 


>  <Gold.Protein.RotatedWaterAtoms>  (138) 


>  <Gold.Version>  (138) 
5.3.0

>  <PLP.Chemscore.CHOScore>  (138) 


>  <PLP.Chemscore.Hbond>  (138) 


>  <PLP.Chemscore.Internal.Correction>  (138) 


>  <PLP.Chemscore.Metal>  (138) 


>  <PLP.Fitness>  (138) 


>  <PLP.PLP>  (138) 


>  <PLP.ligand.clash>  (138) 


>  <PLP.ligand.torsion>  (138) 


>  <PLP.part.buried>  (138) 


>  <PLP.part.hbond>  (138) 


>  <PLP.part.metal>  (138) 


>  <PLP.part.nonpolar>  (138) 


>  <PLP.part.repulsive>  (138) 


>  <RMSD>  (138) 
0.499949349045

>  <Torsion>  (138) 
159.973716791

>  <TorsionO>  (138) 
19.1052109979

>  <TorsionR>  (138) 
179.078927789

>  <Version>  (138) 


>  <product>  (138) 
3|Compound_3|Compounds_3D_F|sdf|2|dock1|1

>  <rmsd>  (138) 
-1

$$$$
1884|M3006_1781|Aromatic_primary_amines_F|sdf|361|dock3|1
     RDKit          3D

 31 34  0  0  0  0  0  0  0  0999 V2000
  -14.4210  -19.8971    8.7934 C   0  0  0  0  0  0  0  0  0  0  0  0
  -13.9762  -19.4927   10.1894 C   0  0  0  0  0  0  0  0  0  0  0  0
  -14.1356  -20.6409   11.1817 C   0  0  0  0  0  0  0  0  0  0  0  0
  -13.5197  -20.3070   12.5189 C   0  0  0  0  0  0  0  0  0  0  0  0
  -12.9307  -19.2724   12.7954 O   0  0  0  0  0  0  0  0  0  0  0  0
  -13.7110  -21.3451   13.3845 O   0  0  0  0  0  0  0  0  0  0  0  0
  -12.9425  -21.2698   14.5900 C   0  0  0  0  0  0  0  0  0  0  0  0
  -12.8849  -22.6189   15.2889 C   0  0  0  0  0  0  0  0  0  0  0  0
  -11.6552  -22.4172   16.1494 C   0  0  0  0  0  0  0  0  0  0  0  0
  -11.2420  -23.7410   16.7624 C   0  0  0  0  0  0  0  0  0  0  0  0
  -12.3024  -24.2223   17.5862 O   0  0  0  0  0  0  0  0  0  0  0  0
  -13.7888  -24.3384   16.9603 P   0  0  0  0  0  0  0  0  0  0  0  0
  -14.8775  -24.6795   17.9243 O   0  0  0  0  0  0  0  0  0  0  0  0
  -13.9839  -22.9641   16.1174 O   0  0  0  0  0  0  0  0  0  0  0  0
  -13.5991  -25.4435   15.8075 O   0  0  0  0  0  0  0  0  0  0  0  0
  -10.6922  -21.8161   15.2889 O   0  0  0  0  0  0  0  0  0  0  0  0
  -11.4338  -20.9664   14.3653 C   0  0  0  0  0  0  0  0  0  0  0  0
  -10.9052  -21.2017   13.0342 N   0  0  0  0  0  0  0  0  0  0  0  0
  -10.7814  -22.4114   12.4013 C   0  0  0  0  0  0  0  0  0  0  0  0
  -10.2640  -22.2918   11.1953 N   0  0  0  0  0  0  0  0  0  0  0  0
  -10.0274  -20.9476   11.0424 C   0  0  0  0  0  0  0  0  0  0  0  0
  -10.4203  -20.2487   12.1733 C   0  0  0  0  0  0  0  0  0  0  0  0
  -10.3338  -18.9216   12.3641 N   0  0  0  0  0  0  0  0  0  0  0  0
   -9.8057  -18.2730   11.3024 C   0  0  0  0  0  0  0  0  0  0  0  0
   -9.3808  -18.8370   10.1545 N   0  0  0  0  0  0  0  0  0  0  0  0
   -9.4895  -20.1691   10.0244 C   0  0  0  0  0  0  0  0  0  0  0  0
   -9.0330  -20.6622    8.8349 O   0  0  0  0  0  0  0  0  0  0  0  0
   -9.7222  -16.8901   11.4793 N   0  0  0  0  0  0  0  0  0  0  0  0
   -8.5796  -16.1798   11.7761 C   0  0  0  0  0  0  0  0  0  0  0  0
   -7.4445  -16.6221   11.9131 O   0  0  0  0  0  0  0  0  0  0  0  0
   -8.8524  -14.7024   11.8973 C   0  0  0  0  0  0  0  0  0  0  0  0
  1  2  1  0
  2  3  1  0
  3  4  1  0
  4  5  2  0
  4  6  1  0
  6  7  1  0
  7  8  1  0
  7 17  1  0
  8  9  1  0
  8 14  1  0
  9 10  1  0
  9 16  1  0
 10 11  1  0
 11 12  1  0
 12 13  2  0
 12 14  1  0
 12 15  1  0
 16 17  1  0
 17 18  1  0
 18 19  1  0
 18 22  1  0
 19 20  2  0
 20 21  1  0
 21 22  2  0
 21 26  1  0
 22 23  1  0
 23 24  2  0
 24 25  1  0
 24 28  1  0
 25 26  2  0
 26 27  1  0
 28 29  1  0
 29 30  2  0
 29 31  1  0
M  END
>  <Gold.Gold.Protein.RotatedWaterAtoms>  (139) 


>  <Gold.Id.Protein>  (139) 


>  <Gold.PLP.Chemscore.CHOScore>  (139) 
0.0000

>  <Gold.PLP.Chemscore.Hbond>  (139) 
1.2080

>  <Gold.PLP.Chemscore.Internal.Correction>  (139) 
0.1232

>  <Gold.PLP.Chemscore.Metal>  (139) 
0.0000

>  <Gold.PLP.Fitness>  (139) 
47.7145

>  <Gold.PLP.PLP>  (139) 
-46.0218

>  <Gold.PLP.ligand.clash>  (139) 
0.0000

>  <Gold.PLP.ligand.torsion>  (139) 
1.0272

>  <Gold.PLP.part.buried>  (139) 
-2.2958

>  <Gold.PLP.part.hbond>  (139) 
-4.0214

>  <Gold.PLP.part.metal>  (139) 
0.0000

>  <Gold.PLP.part.nonpolar>  (139) 
-41.4699

>  <Gold.PLP.part.repulsive>  (139) 
0.9524

>  <Gold.Protein.RotatedAtoms>  (139) 


>  <Gold.Protein.RotatedTorsions>  (139) 


>  <Gold.Protein.RotatedWaterAtoms>  (139) 


>  <Gold.Version>  (139) 
5.3.0

>  <PLP.Chemscore.CHOScore>  (139) 


>  <PLP.Chemscore.Hbond>  (139) 


>  <PLP.Chemscore.Internal.Correction>  (139) 


>  <PLP.Chemscore.Metal>  (139) 


>  <PLP.Fitness>  (139) 


>  <PLP.PLP>  (139) 


>  <PLP.ligand.clash>  (139) 


>  <PLP.ligand.torsion>  (139) 


>  <PLP.part.buried>  (139) 


>  <PLP.part.hbond>  (139) 


>  <PLP.part.metal>  (139) 


>  <PLP.part.nonpolar>  (139) 


>  <PLP.part.repulsive>  (139) 


>  <RMSD>  (139) 
0.291955871297

>  <Torsion>  (139) 
171.923704933

>  <TorsionO>  (139) 
6.03609353985

>  <TorsionR>  (139) 
177.959798473

>  <Version>  (139) 


>  <product>  (139) 
3|Compound_3|Compounds_3D_F|sdf|2|dock1|1

>  <rmsd>  (139) 
-1

$$$$
193|32168_281|Aromatic_primary_amines_F|sdf|39|dock6|1
     RDKit          3D

 23 25  0  0  0  0  0  0  0  0999 V2000
   -7.8439  -12.1461   11.8919 C   0  0  0  0  0  0  0  0  0  0  0  0
   -8.5691  -13.4472   11.6781 C   0  0  0  0  0  0  0  0  0  0  0  0
   -9.7886  -13.4981   11.5208 O   0  0  0  0  0  0  0  0  0  0  0  0
   -7.7264  -14.5390   11.7020 N   0  0  0  0  0  0  0  0  0  0  0  0
   -8.1889  -15.8197   11.5323 C   0  0  0  0  0  0  0  0  0  0  0  0
   -9.4747  -16.2039   11.8163 N   0  0  0  0  0  0  0  0  0  0  0  0
   -9.5964  -17.5375   11.5379 C   0  0  0  0  0  0  0  0  0  0  0  0
  -10.6643  -18.4283   11.6415 C   0  0  0  0  0  0  0  0  0  0  0  0
  -10.4051  -19.7586   11.2778 C   0  0  0  0  0  0  0  0  0  0  0  0
   -9.1530  -20.1507   10.7795 C   0  0  0  0  0  0  0  0  0  0  0  0
   -8.1017  -19.2294   10.6839 C   0  0  0  0  0  0  0  0  0  0  0  0
   -8.3349  -17.9032   11.0783 C   0  0  0  0  0  0  0  0  0  0  0  0
   -7.4773  -16.8281   11.0838 N   0  0  0  0  0  0  0  0  0  0  0  0
   -8.8530  -21.7658   10.2429 Cl  0  0  0  0  0  0  0  0  0  0  0  0
  -11.4669  -20.6323   11.3734 O   0  0  0  0  0  0  0  0  0  0  0  0
  -12.5262  -20.4408   10.5053 C   0  0  0  0  0  0  0  0  0  0  0  0
  -13.3188  -19.2846   10.5304 C   0  0  0  0  0  0  0  0  0  0  0  0
  -14.3665  -19.1344    9.6224 C   0  0  0  0  0  0  0  0  0  0  0  0
  -14.6219  -20.1279    8.6796 C   0  0  0  0  0  0  0  0  0  0  0  0
  -13.8238  -21.2756    8.6345 C   0  0  0  0  0  0  0  0  0  0  0  0
  -12.7674  -21.4342    9.5416 C   0  0  0  0  0  0  0  0  0  0  0  0
  -11.7588  -22.8458    9.4996 Cl  0  0  0  0  0  0  0  0  0  0  0  0
  -14.1988  -22.4584    7.4296 Cl  0  0  0  0  0  0  0  0  0  0  0  0
  1  2  1  0
  2  3  2  0
  2  4  1  0
  4  5  1  0
  5  6  1  0
  5 13  2  0
  6  7  1  0
  7  8  2  0
  7 12  1  0
  8  9  1  0
  9 10  2  0
  9 15  1  0
 10 11  1  0
 10 14  1  0
 11 12  2  0
 12 13  1  0
 15 16  1  0
 16 17  2  0
 16 21  1  0
 17 18  1  0
 18 19  2  0
 19 20  1  0
 20 21  2  0
 20 23  1  0
 21 22  1  0
M  END
>  <Gold.Gold.Protein.RotatedWaterAtoms>  (140) 


>  <Gold.Id.Protein>  (140) 


>  <Gold.PLP.Chemscore.CHOScore>  (140) 
0.0000

>  <Gold.PLP.Chemscore.Hbond>  (140) 
1.0000

>  <Gold.PLP.Chemscore.Internal.Correction>  (140) 
0.0086

>  <Gold.PLP.Chemscore.Metal>  (140) 
0.0000

>  <Gold.PLP.Fitness>  (140) 
50.7139

>  <Gold.PLP.PLP>  (140) 
-48.1706

>  <Gold.PLP.ligand.clash>  (140) 
0.0000

>  <Gold.PLP.ligand.torsion>  (140) 
0.2327

>  <Gold.PLP.part.buried>  (140) 
-6.5205

>  <Gold.PLP.part.hbond>  (140) 
-2.0000

>  <Gold.PLP.part.metal>  (140) 
0.0000

>  <Gold.PLP.part.nonpolar>  (140) 
-39.3857

>  <Gold.PLP.part.repulsive>  (140) 
0.3298

>  <Gold.Protein.RotatedAtoms>  (140) 


>  <Gold.Protein.RotatedTorsions>  (140) 


>  <Gold.Protein.RotatedWaterAtoms>  (140) 


>  <Gold.Version>  (140) 
5.3.0

>  <PLP.Chemscore.CHOScore>  (140) 


>  <PLP.Chemscore.Hbond>  (140) 


>  <PLP.Chemscore.Internal.Correction>  (140) 


>  <PLP.Chemscore.Metal>  (140) 


>  <PLP.Fitness>  (140) 


>  <PLP.PLP>  (140) 


>  <PLP.ligand.clash>  (140) 


>  <PLP.ligand.torsion>  (140) 


>  <PLP.part.buried>  (140) 


>  <PLP.part.hbond>  (140) 


>  <PLP.part.metal>  (140) 


>  <PLP.part.nonpolar>  (140) 


>  <PLP.part.repulsive>  (140) 


>  <RMSD>  (140) 
0.439733510035

>  <Torsion>  (140) 
177.672185574

>  <TorsionO>  (140) 
4.31728583372

>  <TorsionR>  (140) 
173.35489974

>  <Version>  (140) 


>  <product>  (140) 
3|Compound_3|Compounds_3D_F|sdf|2|dock1|1

>  <rmsd>  (140) 
-1

$$$$
50|Compound_23|Compounds_3D_F|sdf|9|dock5|1
     RDKit          3D

 11 10  0  0  0  0  0  0  0  0999 V2000
   -9.0062  -14.9658   11.8371 O   0  0  0  0  0  0  0  0  0  0  0  0
   -8.0480  -15.1150   10.9102 C   0  0  0  0  0  0  0  0  0  0  0  0
   -8.3432  -15.1808    9.7397 O   0  0  0  0  0  0  0  0  0  0  0  0
   -6.6023  -15.2013   11.3275 C   0  0  0  0  0  0  0  0  0  0  0  0
   -5.7540  -15.2728   10.1353 N   0  0  0  0  0  0  0  0  0  0  0  0
   -5.8747  -16.3106    9.2834 C   0  0  0  0  0  0  0  0  0  0  0  0
   -6.6861  -17.1841    9.5035 O   0  0  0  0  0  0  0  0  0  0  0  0
   -4.9657  -16.3868    8.0058 B   0  0  0  0  0  0  0  0  0  0  0  0
   -6.3913  -16.4547   12.1789 C   0  0  0  0  0  0  0  0  0  0  0  0
   -6.2317  -13.9613   12.1442 C   0  0  0  0  0  0  0  0  0  0  0  0
   -4.8096  -13.8351   12.1978 O   0  0  0  0  0  0  0  0  0  0  0  0
  1  2  1  0
  2  3  2  0
  2  4  1  0
  4  5  1  0
  4  9  1  0
  4 10  1  0
  5  6  1  0
  6  7  2  0
  6  8  1  0
 10 11  1  0
M  END
>  <Gold.Gold.Protein.RotatedWaterAtoms>  (141) 


>  <Gold.Id.Protein>  (141) 


>  <Gold.PLP.Chemscore.CHOScore>  (141) 
0.0000

>  <Gold.PLP.Chemscore.Hbond>  (141) 
2.8500

>  <Gold.PLP.Chemscore.Internal.Correction>  (141) 
0.0003

>  <Gold.PLP.Chemscore.Metal>  (141) 
0.0000

>  <Gold.PLP.Fitness>  (141) 
30.2218

>  <Gold.PLP.PLP>  (141) 
-22.1948

>  <Gold.PLP.ligand.clash>  (141) 
0.0000

>  <Gold.PLP.ligand.torsion>  (141) 
0.2617

>  <Gold.PLP.part.buried>  (141) 
-5.2876

>  <Gold.PLP.part.hbond>  (141) 
-4.0000

>  <Gold.PLP.part.metal>  (141) 
0.0000

>  <Gold.PLP.part.nonpolar>  (141) 
-13.8234

>  <Gold.PLP.part.repulsive>  (141) 
0.3907

>  <Gold.Protein.RotatedAtoms>  (141) 


>  <Gold.Protein.RotatedTorsions>  (141) 


>  <Gold.Protein.RotatedWaterAtoms>  (141) 


>  <Gold.Version>  (141) 
5.3.0

>  <PLP.Chemscore.CHOScore>  (141) 


>  <PLP.Chemscore.Hbond>  (141) 


>  <PLP.Chemscore.Internal.Correction>  (141) 


>  <PLP.Chemscore.Metal>  (141) 


>  <PLP.Fitness>  (141) 


>  <PLP.PLP>  (141) 


>  <PLP.ligand.clash>  (141) 


>  <PLP.ligand.torsion>  (141) 


>  <PLP.part.buried>  (141) 


>  <PLP.part.hbond>  (141) 


>  <PLP.part.metal>  (141) 


>  <PLP.part.nonpolar>  (141) 


>  <PLP.part.repulsive>  (141) 


>  <Version>  (141) 


$$$$
94|664022_40|Aromatic_carboxylic_acids_F|sdf|24|dock1|1
     RDKit          3D

 12 12  0  0  0  0  0  0  0  0999 V2000
   -8.2596  -17.1212   11.4595 C   0  0  0  0  0  0  0  0  0  0  0  0
   -7.6366  -15.8367   11.6688 N   0  0  0  0  0  0  0  0  0  0  0  0
   -8.3409  -14.6553   11.5719 C   0  0  0  0  0  0  0  0  0  0  0  0
   -9.5296  -14.5547   11.2978 O   0  0  0  0  0  0  0  0  0  0  0  0
   -7.5420  -13.4431   11.8503 C   0  0  0  0  0  0  0  0  0  0  0  0
   -8.1627  -12.1983   11.6738 C   0  0  0  0  0  0  0  0  0  0  0  0
   -7.4390  -11.0301   11.9055 C   0  0  0  0  0  0  0  0  0  0  0  0
   -6.1069  -11.0910   12.3103 C   0  0  0  0  0  0  0  0  0  0  0  0
   -5.4897  -12.3324   12.4853 C   0  0  0  0  0  0  0  0  0  0  0  0
   -6.2035  -13.5136   12.2549 C   0  0  0  0  0  0  0  0  0  0  0  0
   -5.3062  -15.1564   12.5638 Br  0  0  0  0  0  0  0  0  0  0  0  0
   -8.1960   -9.5005   11.6887 Cl  0  0  0  0  0  0  0  0  0  0  0  0
  1  2  1  0
  2  3  1  0
  3  4  2  0
  3  5  1  0
  5  6  2  0
  5 10  1  0
  6  7  1  0
  7  8  2  0
  7 12  1  0
  8  9  1  0
  9 10  2  0
 10 11  1  0
M  END
>  <Gold.Gold.Protein.RotatedWaterAtoms>  (142) 


>  <Gold.Id.Protein>  (142) 


>  <Gold.PLP.Chemscore.CHOScore>  (142) 
0.0000

>  <Gold.PLP.Chemscore.Hbond>  (142) 
0.4160

>  <Gold.PLP.Chemscore.Internal.Correction>  (142) 
0.0004

>  <Gold.PLP.Chemscore.Metal>  (142) 
0.0000

>  <Gold.PLP.Fitness>  (142) 
48.9046

>  <Gold.PLP.PLP>  (142) 
-47.6744

>  <Gold.PLP.ligand.clash>  (142) 
0.0000

>  <Gold.PLP.ligand.torsion>  (142) 
0.0091

>  <Gold.PLP.part.buried>  (142) 
-7.3578

>  <Gold.PLP.part.hbond>  (142) 
-0.5127

>  <Gold.PLP.part.metal>  (142) 
0.0000

>  <Gold.PLP.part.nonpolar>  (142) 
-40.3098

>  <Gold.PLP.part.repulsive>  (142) 
0.1684

>  <Gold.Protein.RotatedAtoms>  (142) 


>  <Gold.Protein.RotatedTorsions>  (142) 


>  <Gold.Protein.RotatedWaterAtoms>  (142) 


>  <Gold.Version>  (142) 
5.3.0

>  <PLP.Chemscore.CHOScore>  (142) 


>  <PLP.Chemscore.Hbond>  (142) 


>  <PLP.Chemscore.Internal.Correction>  (142) 


>  <PLP.Chemscore.Metal>  (142) 


>  <PLP.Fitness>  (142) 


>  <PLP.PLP>  (142) 


>  <PLP.ligand.clash>  (142) 


>  <PLP.ligand.torsion>  (142) 


>  <PLP.part.buried>  (142) 


>  <PLP.part.hbond>  (142) 


>  <PLP.part.metal>  (142) 


>  <PLP.part.nonpolar>  (142) 


>  <PLP.part.repulsive>  (142) 


>  <RMSD>  (142) 
0.30972197429

>  <Torsion>  (142) 
172.929186758

>  <TorsionO>  (142) 
24.4968065243

>  <TorsionR>  (142) 
162.574006718

>  <Version>  (142) 


>  <product>  (142) 
50|Compound_23|Compounds_3D_F|sdf|9|dock5|1

>  <rmsd>  (142) 
-1

$$$$
110|565385_49|Aromatic_carboxylic_acids_F|sdf|29|dock1|1
     RDKit          3D

 13 13  0  0  0  0  0  0  0  0999 V2000
  -10.1118  -17.9021   11.6320 C   0  0  0  0  0  0  0  0  0  0  0  0
   -9.7537  -16.5043   11.6546 N   0  0  0  0  0  0  0  0  0  0  0  0
   -8.4330  -16.1187   11.7930 C   0  0  0  0  0  0  0  0  0  0  0  0
   -7.5159  -16.9298   11.9008 O   0  0  0  0  0  0  0  0  0  0  0  0
   -8.1234  -14.6552   11.8105 C   0  0  0  0  0  0  0  0  0  0  0  0
   -9.0636  -13.6551   11.5375 C   0  0  0  0  0  0  0  0  0  0  0  0
   -8.6966  -12.3009   11.5726 C   0  0  0  0  0  0  0  0  0  0  0  0
   -7.3879  -11.9195   11.8809 C   0  0  0  0  0  0  0  0  0  0  0  0
   -6.4486  -12.9235   12.1551 C   0  0  0  0  0  0  0  0  0  0  0  0
   -6.8098  -14.2750   12.1207 C   0  0  0  0  0  0  0  0  0  0  0  0
   -4.6444  -12.5025   12.5849 Br  0  0  0  0  0  0  0  0  0  0  0  0
   -6.9476  -10.6242   11.9372 O   0  0  0  0  0  0  0  0  0  0  0  0
   -7.9020   -9.5910   11.7256 C   0  0  0  0  0  0  0  0  0  0  0  0
  1  2  1  0
  2  3  1  0
  3  4  2  0
  3  5  1  0
  5  6  2  0
  5 10  1  0
  6  7  1  0
  7  8  2  0
  8  9  1  0
  8 12  1  0
  9 10  2  0
  9 11  1  0
 12 13  1  0
M  END
>  <Gold.Gold.Protein.RotatedWaterAtoms>  (143) 


>  <Gold.Id.Protein>  (143) 


>  <Gold.PLP.Chemscore.CHOScore>  (143) 
0.0000

>  <Gold.PLP.Chemscore.Hbond>  (143) 
1.0000

>  <Gold.PLP.Chemscore.Internal.Correction>  (143) 
0.0000

>  <Gold.PLP.Chemscore.Metal>  (143) 
0.0000

>  <Gold.PLP.Fitness>  (143) 
43.9775

>  <Gold.PLP.PLP>  (143) 
-41.0517

>  <Gold.PLP.ligand.clash>  (143) 
0.0000

>  <Gold.PLP.ligand.torsion>  (143) 
0.0371

>  <Gold.PLP.part.buried>  (143) 
-3.7367

>  <Gold.PLP.part.hbond>  (143) 
-1.0000

>  <Gold.PLP.part.metal>  (143) 
0.0000

>  <Gold.PLP.part.nonpolar>  (143) 
-36.7483

>  <Gold.PLP.part.repulsive>  (143) 
0.4054

>  <Gold.Protein.RotatedAtoms>  (143) 


>  <Gold.Protein.RotatedTorsions>  (143) 


>  <Gold.Protein.RotatedWaterAtoms>  (143) 


>  <Gold.Version>  (143) 
5.3.0

>  <PLP.Chemscore.CHOScore>  (143) 


>  <PLP.Chemscore.Hbond>  (143) 


>  <PLP.Chemscore.Internal.Correction>  (143) 


>  <PLP.Chemscore.Metal>  (143) 


>  <PLP.Fitness>  (143) 


>  <PLP.PLP>  (143) 


>  <PLP.ligand.clash>  (143) 


>  <PLP.ligand.torsion>  (143) 


>  <PLP.part.buried>  (143) 


>  <PLP.part.hbond>  (143) 


>  <PLP.part.metal>  (143) 


>  <PLP.part.nonpolar>  (143) 


>  <PLP.part.repulsive>  (143) 


>  <RMSD>  (143) 
0.319376411377

>  <Torsion>  (143) 
169.460450784

>  <TorsionO>  (143) 
9.7963905484

>  <TorsionR>  (143) 
179.256841332

>  <Version>  (143) 


>  <product>  (143) 
50|Compound_23|Compounds_3D_F|sdf|9|dock5|1

>  <rmsd>  (143) 
-1

$$$$
128|137677_56|Aromatic_carboxylic_acids_F|sdf|33|dock1|1
     RDKit          3D

 11 11  0  0  0  0  0  0  0  0999 V2000
   -8.6116  -16.1544   11.8887 C   0  0  0  0  0  0  0  0  0  0  0  0
   -7.9978  -14.8484   11.9215 N   0  0  0  0  0  0  0  0  0  0  0  0
   -8.7778  -13.7008   11.8756 C   0  0  0  0  0  0  0  0  0  0  0  0
  -10.0002  -13.7896   11.8139 O   0  0  0  0  0  0  0  0  0  0  0  0
   -8.0808  -12.3609   11.9017 C   0  0  0  0  0  0  0  0  0  0  0  0
   -8.7916  -11.1851   11.5813 C   0  0  0  0  0  0  0  0  0  0  0  0
   -8.1781   -9.9267   11.5989 C   0  0  0  0  0  0  0  0  0  0  0  0
   -6.8391   -9.8089   11.9369 C   0  0  0  0  0  0  0  0  0  0  0  0
   -6.1124  -10.9502   12.2575 C   0  0  0  0  0  0  0  0  0  0  0  0
   -6.7171  -12.2196   12.2428 C   0  0  0  0  0  0  0  0  0  0  0  0
   -5.5419  -13.6455   12.7121 Br  0  0  0  0  0  0  0  0  0  0  0  0
  1  2  1  0
  2  3  1  0
  3  4  2  0
  3  5  1  0
  5  6  2  0
  5 10  1  0
  6  7  1  0
  7  8  2  0
  8  9  1  0
  9 10  2  0
 10 11  1  0
M  END
>  <Gold.Gold.Protein.RotatedWaterAtoms>  (144) 


>  <Gold.Id.Protein>  (144) 


>  <Gold.PLP.Chemscore.CHOScore>  (144) 
0.0000

>  <Gold.PLP.Chemscore.Hbond>  (144) 
1.0000

>  <Gold.PLP.Chemscore.Internal.Correction>  (144) 
0.0000

>  <Gold.PLP.Chemscore.Metal>  (144) 
0.0000

>  <Gold.PLP.Fitness>  (144) 
45.2899

>  <Gold.PLP.PLP>  (144) 
-42.4444

>  <Gold.PLP.ligand.clash>  (144) 
0.0000

>  <Gold.PLP.ligand.torsion>  (144) 
0.0772

>  <Gold.PLP.part.buried>  (144) 
-6.4690

>  <Gold.PLP.part.hbond>  (144) 
-0.6863

>  <Gold.PLP.part.metal>  (144) 
0.0000

>  <Gold.PLP.part.nonpolar>  (144) 
-34.8280

>  <Gold.PLP.part.repulsive>  (144) 
0.1963

>  <Gold.Protein.RotatedAtoms>  (144) 


>  <Gold.Protein.RotatedTorsions>  (144) 


>  <Gold.Protein.RotatedWaterAtoms>  (144) 


>  <Gold.Version>  (144) 
5.3.0

>  <PLP.Chemscore.CHOScore>  (144) 


>  <PLP.Chemscore.Hbond>  (144) 


>  <PLP.Chemscore.Internal.Correction>  (144) 


>  <PLP.Chemscore.Metal>  (144) 


>  <PLP.Fitness>  (144) 


>  <PLP.PLP>  (144) 


>  <PLP.ligand.clash>  (144) 


>  <PLP.ligand.torsion>  (144) 


>  <PLP.part.buried>  (144) 


>  <PLP.part.hbond>  (144) 


>  <PLP.part.metal>  (144) 


>  <PLP.part.nonpolar>  (144) 


>  <PLP.part.repulsive>  (144) 


>  <RMSD>  (144) 
0.428070490903

>  <Torsion>  (144) 
152.444048788

>  <TorsionO>  (144) 
39.0580871276

>  <TorsionR>  (144) 
168.497864085

>  <Version>  (144) 


>  <product>  (144) 
50|Compound_23|Compounds_3D_F|sdf|9|dock5|1

>  <rmsd>  (144) 
-1

$$$$
974|750794_1404|Aromatic_primary_amines_F|sdf|194|dock3|1
     RDKit          3D

 14 14  0  0  0  0  0  0  0  0999 V2000
  -13.6355  -18.1936    9.4145 C   0  0  0  0  0  0  0  0  0  0  0  0
  -13.2544  -19.4497   10.1732 C   0  0  0  0  0  0  0  0  0  0  0  0
  -11.8731  -19.3506   10.5383 O   0  0  0  0  0  0  0  0  0  0  0  0
  -11.6148  -18.5085   11.5823 C   0  0  0  0  0  0  0  0  0  0  0  0
  -12.3947  -18.2810   12.5004 O   0  0  0  0  0  0  0  0  0  0  0  0
  -10.3031  -17.8985   11.4902 C   0  0  0  0  0  0  0  0  0  0  0  0
   -9.1673  -18.4974   10.9931 C   0  0  0  0  0  0  0  0  0  0  0  0
   -8.1448  -17.6055   11.0758 O   0  0  0  0  0  0  0  0  0  0  0  0
   -8.7110  -16.4917   11.6237 C   0  0  0  0  0  0  0  0  0  0  0  0
   -9.9933  -16.6110   11.8915 N   0  0  0  0  0  0  0  0  0  0  0  0
   -7.9611  -15.3718   11.8549 N   0  0  0  0  0  0  0  0  0  0  0  0
   -8.5046  -14.1249   12.0676 C   0  0  0  0  0  0  0  0  0  0  0  0
   -9.6950  -13.8313   12.1035 O   0  0  0  0  0  0  0  0  0  0  0  0
   -7.4448  -13.0785   12.3021 C   0  0  0  0  0  0  0  0  0  0  0  0
  1  2  1  0
  2  3  1  0
  3  4  1  0
  4  5  2  0
  4  6  1  0
  6  7  2  0
  6 10  1  0
  7  8  1  0
  8  9  1  0
  9 10  2  0
  9 11  1  0
 11 12  1  0
 12 13  2  0
 12 14  1  0
M  END
>  <Gold.Gold.Protein.RotatedWaterAtoms>  (145) 


>  <Gold.Id.Protein>  (145) 


>  <Gold.PLP.Chemscore.CHOScore>  (145) 
0.0000

>  <Gold.PLP.Chemscore.Hbond>  (145) 
2.0000

>  <Gold.PLP.Chemscore.Internal.Correction>  (145) 
0.0053

>  <Gold.PLP.Chemscore.Metal>  (145) 
0.0000

>  <Gold.PLP.Fitness>  (145) 
36.8047

>  <Gold.PLP.PLP>  (145) 
-32.7996

>  <Gold.PLP.ligand.clash>  (145) 
0.0000

>  <Gold.PLP.ligand.torsion>  (145) 
1.0001

>  <Gold.PLP.part.buried>  (145) 
-6.5206

>  <Gold.PLP.part.hbond>  (145) 
-2.9156

>  <Gold.PLP.part.metal>  (145) 
0.0000

>  <Gold.PLP.part.nonpolar>  (145) 
-23.4080

>  <Gold.PLP.part.repulsive>  (145) 
0.3100

>  <Gold.Protein.RotatedAtoms>  (145) 


>  <Gold.Protein.RotatedTorsions>  (145) 


>  <Gold.Protein.RotatedWaterAtoms>  (145) 


>  <Gold.Version>  (145) 
5.3.0

>  <PLP.Chemscore.CHOScore>  (145) 


>  <PLP.Chemscore.Hbond>  (145) 


>  <PLP.Chemscore.Internal.Correction>  (145) 


>  <PLP.Chemscore.Metal>  (145) 


>  <PLP.Fitness>  (145) 


>  <PLP.PLP>  (145) 


>  <PLP.ligand.clash>  (145) 


>  <PLP.ligand.torsion>  (145) 


>  <PLP.part.buried>  (145) 


>  <PLP.part.hbond>  (145) 


>  <PLP.part.metal>  (145) 


>  <PLP.part.nonpolar>  (145) 


>  <PLP.part.repulsive>  (145) 


>  <RMSD>  (145) 
0.499949349045

>  <Torsion>  (145) 
159.973716791

>  <TorsionO>  (145) 
19.1052109979

>  <TorsionR>  (145) 
179.078927789

>  <Version>  (145) 


>  <product>  (145) 
50|Compound_23|Compounds_3D_F|sdf|9|dock5|1

>  <rmsd>  (145) 
-1

$$$$
1884|M3006_1781|Aromatic_primary_amines_F|sdf|361|dock3|1
     RDKit          3D

 31 34  0  0  0  0  0  0  0  0999 V2000
  -14.4210  -19.8971    8.7934 C   0  0  0  0  0  0  0  0  0  0  0  0
  -13.9762  -19.4927   10.1894 C   0  0  0  0  0  0  0  0  0  0  0  0
  -14.1356  -20.6409   11.1817 C   0  0  0  0  0  0  0  0  0  0  0  0
  -13.5197  -20.3070   12.5189 C   0  0  0  0  0  0  0  0  0  0  0  0
  -12.9307  -19.2724   12.7954 O   0  0  0  0  0  0  0  0  0  0  0  0
  -13.7110  -21.3451   13.3845 O   0  0  0  0  0  0  0  0  0  0  0  0
  -12.9425  -21.2698   14.5900 C   0  0  0  0  0  0  0  0  0  0  0  0
  -12.8849  -22.6189   15.2889 C   0  0  0  0  0  0  0  0  0  0  0  0
  -11.6552  -22.4172   16.1494 C   0  0  0  0  0  0  0  0  0  0  0  0
  -11.2420  -23.7410   16.7624 C   0  0  0  0  0  0  0  0  0  0  0  0
  -12.3024  -24.2223   17.5862 O   0  0  0  0  0  0  0  0  0  0  0  0
  -13.7888  -24.3384   16.9603 P   0  0  0  0  0  0  0  0  0  0  0  0
  -14.8775  -24.6795   17.9243 O   0  0  0  0  0  0  0  0  0  0  0  0
  -13.9839  -22.9641   16.1174 O   0  0  0  0  0  0  0  0  0  0  0  0
  -13.5991  -25.4435   15.8075 O   0  0  0  0  0  0  0  0  0  0  0  0
  -10.6922  -21.8161   15.2889 O   0  0  0  0  0  0  0  0  0  0  0  0
  -11.4338  -20.9664   14.3653 C   0  0  0  0  0  0  0  0  0  0  0  0
  -10.9052  -21.2017   13.0342 N   0  0  0  0  0  0  0  0  0  0  0  0
  -10.7814  -22.4114   12.4013 C   0  0  0  0  0  0  0  0  0  0  0  0
  -10.2640  -22.2918   11.1953 N   0  0  0  0  0  0  0  0  0  0  0  0
  -10.0274  -20.9476   11.0424 C   0  0  0  0  0  0  0  0  0  0  0  0
  -10.4203  -20.2487   12.1733 C   0  0  0  0  0  0  0  0  0  0  0  0
  -10.3338  -18.9216   12.3641 N   0  0  0  0  0  0  0  0  0  0  0  0
   -9.8057  -18.2730   11.3024 C   0  0  0  0  0  0  0  0  0  0  0  0
   -9.3808  -18.8370   10.1545 N   0  0  0  0  0  0  0  0  0  0  0  0
   -9.4895  -20.1691   10.0244 C   0  0  0  0  0  0  0  0  0  0  0  0
   -9.0330  -20.6622    8.8349 O   0  0  0  0  0  0  0  0  0  0  0  0
   -9.7222  -16.8901   11.4793 N   0  0  0  0  0  0  0  0  0  0  0  0
   -8.5796  -16.1798   11.7761 C   0  0  0  0  0  0  0  0  0  0  0  0
   -7.4445  -16.6221   11.9131 O   0  0  0  0  0  0  0  0  0  0  0  0
   -8.8524  -14.7024   11.8973 C   0  0  0  0  0  0  0  0  0  0  0  0
  1  2  1  0
  2  3  1  0
  3  4  1  0
  4  5  2  0
  4  6  1  0
  6  7  1  0
  7  8  1  0
  7 17  1  0
  8  9  1  0
  8 14  1  0
  9 10  1  0
  9 16  1  0
 10 11  1  0
 11 12  1  0
 12 13  2  0
 12 14  1  0
 12 15  1  0
 16 17  1  0
 17 18  1  0
 18 19  1  0
 18 22  1  0
 19 20  2  0
 20 21  1  0
 21 22  2  0
 21 26  1  0
 22 23  1  0
 23 24  2  0
 24 25  1  0
 24 28  1  0
 25 26  2  0
 26 27  1  0
 28 29  1  0
 29 30  2  0
 29 31  1  0
M  END
>  <Gold.Gold.Protein.RotatedWaterAtoms>  (146) 


>  <Gold.Id.Protein>  (146) 


>  <Gold.PLP.Chemscore.CHOScore>  (146) 
0.0000

>  <Gold.PLP.Chemscore.Hbond>  (146) 
1.2080

>  <Gold.PLP.Chemscore.Internal.Correction>  (146) 
0.1232

>  <Gold.PLP.Chemscore.Metal>  (146) 
0.0000

>  <Gold.PLP.Fitness>  (146) 
47.7145

>  <Gold.PLP.PLP>  (146) 
-46.0218

>  <Gold.PLP.ligand.clash>  (146) 
0.0000

>  <Gold.PLP.ligand.torsion>  (146) 
1.0272

>  <Gold.PLP.part.buried>  (146) 
-2.2958

>  <Gold.PLP.part.hbond>  (146) 
-4.0214

>  <Gold.PLP.part.metal>  (146) 
0.0000

>  <Gold.PLP.part.nonpolar>  (146) 
-41.4699

>  <Gold.PLP.part.repulsive>  (146) 
0.9524

>  <Gold.Protein.RotatedAtoms>  (146) 


>  <Gold.Protein.RotatedTorsions>  (146) 


>  <Gold.Protein.RotatedWaterAtoms>  (146) 


>  <Gold.Version>  (146) 
5.3.0

>  <PLP.Chemscore.CHOScore>  (146) 


>  <PLP.Chemscore.Hbond>  (146) 


>  <PLP.Chemscore.Internal.Correction>  (146) 


>  <PLP.Chemscore.Metal>  (146) 


>  <PLP.Fitness>  (146) 


>  <PLP.PLP>  (146) 


>  <PLP.ligand.clash>  (146) 


>  <PLP.ligand.torsion>  (146) 


>  <PLP.part.buried>  (146) 


>  <PLP.part.hbond>  (146) 


>  <PLP.part.metal>  (146) 


>  <PLP.part.nonpolar>  (146) 


>  <PLP.part.repulsive>  (146) 


>  <RMSD>  (146) 
0.291955871297

>  <Torsion>  (146) 
171.923704933

>  <TorsionO>  (146) 
6.03609353985

>  <TorsionR>  (146) 
177.959798473

>  <Version>  (146) 


>  <product>  (146) 
50|Compound_23|Compounds_3D_F|sdf|9|dock5|1

>  <rmsd>  (146) 
-1

$$$$
193|32168_281|Aromatic_primary_amines_F|sdf|39|dock6|1
     RDKit          3D

 23 25  0  0  0  0  0  0  0  0999 V2000
   -7.8439  -12.1461   11.8919 C   0  0  0  0  0  0  0  0  0  0  0  0
   -8.5691  -13.4472   11.6781 C   0  0  0  0  0  0  0  0  0  0  0  0
   -9.7886  -13.4981   11.5208 O   0  0  0  0  0  0  0  0  0  0  0  0
   -7.7264  -14.5390   11.7020 N   0  0  0  0  0  0  0  0  0  0  0  0
   -8.1889  -15.8197   11.5323 C   0  0  0  0  0  0  0  0  0  0  0  0
   -9.4747  -16.2039   11.8163 N   0  0  0  0  0  0  0  0  0  0  0  0
   -9.5964  -17.5375   11.5379 C   0  0  0  0  0  0  0  0  0  0  0  0
  -10.6643  -18.4283   11.6415 C   0  0  0  0  0  0  0  0  0  0  0  0
  -10.4051  -19.7586   11.2778 C   0  0  0  0  0  0  0  0  0  0  0  0
   -9.1530  -20.1507   10.7795 C   0  0  0  0  0  0  0  0  0  0  0  0
   -8.1017  -19.2294   10.6839 C   0  0  0  0  0  0  0  0  0  0  0  0
   -8.3349  -17.9032   11.0783 C   0  0  0  0  0  0  0  0  0  0  0  0
   -7.4773  -16.8281   11.0838 N   0  0  0  0  0  0  0  0  0  0  0  0
   -8.8530  -21.7658   10.2429 Cl  0  0  0  0  0  0  0  0  0  0  0  0
  -11.4669  -20.6323   11.3734 O   0  0  0  0  0  0  0  0  0  0  0  0
  -12.5262  -20.4408   10.5053 C   0  0  0  0  0  0  0  0  0  0  0  0
  -13.3188  -19.2846   10.5304 C   0  0  0  0  0  0  0  0  0  0  0  0
  -14.3665  -19.1344    9.6224 C   0  0  0  0  0  0  0  0  0  0  0  0
  -14.6219  -20.1279    8.6796 C   0  0  0  0  0  0  0  0  0  0  0  0
  -13.8238  -21.2756    8.6345 C   0  0  0  0  0  0  0  0  0  0  0  0
  -12.7674  -21.4342    9.5416 C   0  0  0  0  0  0  0  0  0  0  0  0
  -11.7588  -22.8458    9.4996 Cl  0  0  0  0  0  0  0  0  0  0  0  0
  -14.1988  -22.4584    7.4296 Cl  0  0  0  0  0  0  0  0  0  0  0  0
  1  2  1  0
  2  3  2  0
  2  4  1  0
  4  5  1  0
  5  6  1  0
  5 13  2  0
  6  7  1  0
  7  8  2  0
  7 12  1  0
  8  9  1  0
  9 10  2  0
  9 15  1  0
 10 11  1  0
 10 14  1  0
 11 12  2  0
 12 13  1  0
 15 16  1  0
 16 17  2  0
 16 21  1  0
 17 18  1  0
 18 19  2  0
 19 20  1  0
 20 21  2  0
 20 23  1  0
 21 22  1  0
M  END
>  <Gold.Gold.Protein.RotatedWaterAtoms>  (147) 


>  <Gold.Id.Protein>  (147) 


>  <Gold.PLP.Chemscore.CHOScore>  (147) 
0.0000

>  <Gold.PLP.Chemscore.Hbond>  (147) 
1.0000

>  <Gold.PLP.Chemscore.Internal.Correction>  (147) 
0.0086

>  <Gold.PLP.Chemscore.Metal>  (147) 
0.0000

>  <Gold.PLP.Fitness>  (147) 
50.7139

>  <Gold.PLP.PLP>  (147) 
-48.1706

>  <Gold.PLP.ligand.clash>  (147) 
0.0000

>  <Gold.PLP.ligand.torsion>  (147) 
0.2327

>  <Gold.PLP.part.buried>  (147) 
-6.5205

>  <Gold.PLP.part.hbond>  (147) 
-2.0000

>  <Gold.PLP.part.metal>  (147) 
0.0000

>  <Gold.PLP.part.nonpolar>  (147) 
-39.3857

>  <Gold.PLP.part.repulsive>  (147) 
0.3298

>  <Gold.Protein.RotatedAtoms>  (147) 


>  <Gold.Protein.RotatedTorsions>  (147) 


>  <Gold.Protein.RotatedWaterAtoms>  (147) 


>  <Gold.Version>  (147) 
5.3.0

>  <PLP.Chemscore.CHOScore>  (147) 


>  <PLP.Chemscore.Hbond>  (147) 


>  <PLP.Chemscore.Internal.Correction>  (147) 


>  <PLP.Chemscore.Metal>  (147) 


>  <PLP.Fitness>  (147) 


>  <PLP.PLP>  (147) 


>  <PLP.ligand.clash>  (147) 


>  <PLP.ligand.torsion>  (147) 


>  <PLP.part.buried>  (147) 


>  <PLP.part.hbond>  (147) 


>  <PLP.part.metal>  (147) 


>  <PLP.part.nonpolar>  (147) 


>  <PLP.part.repulsive>  (147) 


>  <RMSD>  (147) 
0.439733510035

>  <Torsion>  (147) 
177.672185574

>  <TorsionO>  (147) 
4.31728583372

>  <TorsionR>  (147) 
173.35489974

>  <Version>  (147) 


>  <product>  (147) 
50|Compound_23|Compounds_3D_F|sdf|9|dock5|1

>  <rmsd>  (147) 
-1

$$$$
98|Compound_41|Compounds_3D_F|sdf|16|dock2|1
     RDKit          3D

  9  8  0  0  0  0  0  0  0  0999 V2000
   -8.6689  -13.9046   10.7044 O   0  0  0  0  0  0  0  0  0  0  0  0
   -7.4442  -14.4515   10.6783 C   0  0  0  0  0  0  0  0  0  0  0  0
   -7.0495  -15.0045    9.6783 O   0  0  0  0  0  0  0  0  0  0  0  0
   -6.5595  -14.3775   11.8962 C   0  0  0  0  0  0  0  0  0  0  0  0
   -5.2756  -15.0221   11.6083 N   0  0  0  0  0  0  0  0  0  0  0  0
   -4.9579  -16.1882   12.2036 C   0  0  0  0  0  0  0  0  0  0  0  0
   -5.7350  -16.7048   12.9782 O   0  0  0  0  0  0  0  0  0  0  0  0
   -3.5827  -16.8794   11.8948 B   0  0  0  0  0  0  0  0  0  0  0  0
   -6.3226  -12.9113   12.2651 C   0  0  0  0  0  0  0  0  0  0  0  0
  1  2  1  0
  2  3  2  0
  2  4  1  0
  4  5  1  0
  4  9  1  0
  5  6  1  0
  6  7  2  0
  6  8  1  0
M  END
>  <Gold.Gold.Protein.RotatedWaterAtoms>  (148) 


>  <Gold.Id.Protein>  (148) 


>  <Gold.PLP.Chemscore.CHOScore>  (148) 
0.0000

>  <Gold.PLP.Chemscore.Hbond>  (148) 
2.0000

>  <Gold.PLP.Chemscore.Internal.Correction>  (148) 
0.0000

>  <Gold.PLP.Chemscore.Metal>  (148) 
0.0000

>  <Gold.PLP.Fitness>  (148) 
27.8231

>  <Gold.PLP.PLP>  (148) 
-21.9975

>  <Gold.PLP.ligand.clash>  (148) 
0.0000

>  <Gold.PLP.ligand.torsion>  (148) 
0.0872

>  <Gold.PLP.part.buried>  (148) 
-5.0570

>  <Gold.PLP.part.hbond>  (148) 
-2.0000

>  <Gold.PLP.part.metal>  (148) 
0.0000

>  <Gold.PLP.part.nonpolar>  (148) 
-14.9563

>  <Gold.PLP.part.repulsive>  (148) 
0.2349

>  <Gold.Protein.RotatedAtoms>  (148) 


>  <Gold.Protein.RotatedTorsions>  (148) 


>  <Gold.Protein.RotatedWaterAtoms>  (148) 


>  <Gold.Version>  (148) 
5.3.0

>  <PLP.Chemscore.CHOScore>  (148) 


>  <PLP.Chemscore.Hbond>  (148) 


>  <PLP.Chemscore.Internal.Correction>  (148) 


>  <PLP.Chemscore.Metal>  (148) 


>  <PLP.Fitness>  (148) 


>  <PLP.PLP>  (148) 


>  <PLP.ligand.clash>  (148) 


>  <PLP.ligand.torsion>  (148) 


>  <PLP.part.buried>  (148) 


>  <PLP.part.hbond>  (148) 


>  <PLP.part.metal>  (148) 


>  <PLP.part.nonpolar>  (148) 


>  <PLP.part.repulsive>  (148) 


>  <Version>  (148) 


$$$$
94|664022_40|Aromatic_carboxylic_acids_F|sdf|24|dock1|1
     RDKit          3D

 12 12  0  0  0  0  0  0  0  0999 V2000
   -8.2596  -17.1212   11.4595 C   0  0  0  0  0  0  0  0  0  0  0  0
   -7.6366  -15.8367   11.6688 N   0  0  0  0  0  0  0  0  0  0  0  0
   -8.3409  -14.6553   11.5719 C   0  0  0  0  0  0  0  0  0  0  0  0
   -9.5296  -14.5547   11.2978 O   0  0  0  0  0  0  0  0  0  0  0  0
   -7.5420  -13.4431   11.8503 C   0  0  0  0  0  0  0  0  0  0  0  0
   -8.1627  -12.1983   11.6738 C   0  0  0  0  0  0  0  0  0  0  0  0
   -7.4390  -11.0301   11.9055 C   0  0  0  0  0  0  0  0  0  0  0  0
   -6.1069  -11.0910   12.3103 C   0  0  0  0  0  0  0  0  0  0  0  0
   -5.4897  -12.3324   12.4853 C   0  0  0  0  0  0  0  0  0  0  0  0
   -6.2035  -13.5136   12.2549 C   0  0  0  0  0  0  0  0  0  0  0  0
   -5.3062  -15.1564   12.5638 Br  0  0  0  0  0  0  0  0  0  0  0  0
   -8.1960   -9.5005   11.6887 Cl  0  0  0  0  0  0  0  0  0  0  0  0
  1  2  1  0
  2  3  1  0
  3  4  2  0
  3  5  1  0
  5  6  2  0
  5 10  1  0
  6  7  1  0
  7  8  2  0
  7 12  1  0
  8  9  1  0
  9 10  2  0
 10 11  1  0
M  END
>  <Gold.Gold.Protein.RotatedWaterAtoms>  (149) 


>  <Gold.Id.Protein>  (149) 


>  <Gold.PLP.Chemscore.CHOScore>  (149) 
0.0000

>  <Gold.PLP.Chemscore.Hbond>  (149) 
0.4160

>  <Gold.PLP.Chemscore.Internal.Correction>  (149) 
0.0004

>  <Gold.PLP.Chemscore.Metal>  (149) 
0.0000

>  <Gold.PLP.Fitness>  (149) 
48.9046

>  <Gold.PLP.PLP>  (149) 
-47.6744

>  <Gold.PLP.ligand.clash>  (149) 
0.0000

>  <Gold.PLP.ligand.torsion>  (149) 
0.0091

>  <Gold.PLP.part.buried>  (149) 
-7.3578

>  <Gold.PLP.part.hbond>  (149) 
-0.5127

>  <Gold.PLP.part.metal>  (149) 
0.0000

>  <Gold.PLP.part.nonpolar>  (149) 
-40.3098

>  <Gold.PLP.part.repulsive>  (149) 
0.1684

>  <Gold.Protein.RotatedAtoms>  (149) 


>  <Gold.Protein.RotatedTorsions>  (149) 


>  <Gold.Protein.RotatedWaterAtoms>  (149) 


>  <Gold.Version>  (149) 
5.3.0

>  <PLP.Chemscore.CHOScore>  (149) 


>  <PLP.Chemscore.Hbond>  (149) 


>  <PLP.Chemscore.Internal.Correction>  (149) 


>  <PLP.Chemscore.Metal>  (149) 


>  <PLP.Fitness>  (149) 


>  <PLP.PLP>  (149) 


>  <PLP.ligand.clash>  (149) 


>  <PLP.ligand.torsion>  (149) 


>  <PLP.part.buried>  (149) 


>  <PLP.part.hbond>  (149) 


>  <PLP.part.metal>  (149) 


>  <PLP.part.nonpolar>  (149) 


>  <PLP.part.repulsive>  (149) 


>  <RMSD>  (149) 
0.30972197429

>  <Torsion>  (149) 
172.929186758

>  <TorsionO>  (149) 
24.4968065243

>  <TorsionR>  (149) 
162.574006718

>  <Version>  (149) 


>  <product>  (149) 
98|Compound_41|Compounds_3D_F|sdf|16|dock2|1

>  <rmsd>  (149) 
-1

$$$$
110|565385_49|Aromatic_carboxylic_acids_F|sdf|29|dock1|1
     RDKit          3D

 13 13  0  0  0  0  0  0  0  0999 V2000
  -10.1118  -17.9021   11.6320 C   0  0  0  0  0  0  0  0  0  0  0  0
   -9.7537  -16.5043   11.6546 N   0  0  0  0  0  0  0  0  0  0  0  0
   -8.4330  -16.1187   11.7930 C   0  0  0  0  0  0  0  0  0  0  0  0
   -7.5159  -16.9298   11.9008 O   0  0  0  0  0  0  0  0  0  0  0  0
   -8.1234  -14.6552   11.8105 C   0  0  0  0  0  0  0  0  0  0  0  0
   -9.0636  -13.6551   11.5375 C   0  0  0  0  0  0  0  0  0  0  0  0
   -8.6966  -12.3009   11.5726 C   0  0  0  0  0  0  0  0  0  0  0  0
   -7.3879  -11.9195   11.8809 C   0  0  0  0  0  0  0  0  0  0  0  0
   -6.4486  -12.9235   12.1551 C   0  0  0  0  0  0  0  0  0  0  0  0
   -6.8098  -14.2750   12.1207 C   0  0  0  0  0  0  0  0  0  0  0  0
   -4.6444  -12.5025   12.5849 Br  0  0  0  0  0  0  0  0  0  0  0  0
   -6.9476  -10.6242   11.9372 O   0  0  0  0  0  0  0  0  0  0  0  0
   -7.9020   -9.5910   11.7256 C   0  0  0  0  0  0  0  0  0  0  0  0
  1  2  1  0
  2  3  1  0
  3  4  2  0
  3  5  1  0
  5  6  2  0
  5 10  1  0
  6  7  1  0
  7  8  2  0
  8  9  1  0
  8 12  1  0
  9 10  2  0
  9 11  1  0
 12 13  1  0
M  END
>  <Gold.Gold.Protein.RotatedWaterAtoms>  (150) 


>  <Gold.Id.Protein>  (150) 


>  <Gold.PLP.Chemscore.CHOScore>  (150) 
0.0000

>  <Gold.PLP.Chemscore.Hbond>  (150) 
1.0000

>  <Gold.PLP.Chemscore.Internal.Correction>  (150) 
0.0000

>  <Gold.PLP.Chemscore.Metal>  (150) 
0.0000

>  <Gold.PLP.Fitness>  (150) 
43.9775

>  <Gold.PLP.PLP>  (150) 
-41.0517

>  <Gold.PLP.ligand.clash>  (150) 
0.0000

>  <Gold.PLP.ligand.torsion>  (150) 
0.0371

>  <Gold.PLP.part.buried>  (150) 
-3.7367

>  <Gold.PLP.part.hbond>  (150) 
-1.0000

>  <Gold.PLP.part.metal>  (150) 
0.0000

>  <Gold.PLP.part.nonpolar>  (150) 
-36.7483

>  <Gold.PLP.part.repulsive>  (150) 
0.4054

>  <Gold.Protein.RotatedAtoms>  (150) 


>  <Gold.Protein.RotatedTorsions>  (150) 


>  <Gold.Protein.RotatedWaterAtoms>  (150) 


>  <Gold.Version>  (150) 
5.3.0

>  <PLP.Chemscore.CHOScore>  (150) 


>  <PLP.Chemscore.Hbond>  (150) 


>  <PLP.Chemscore.Internal.Correction>  (150) 


>  <PLP.Chemscore.Metal>  (150) 


>  <PLP.Fitness>  (150) 


>  <PLP.PLP>  (150) 


>  <PLP.ligand.clash>  (150) 


>  <PLP.ligand.torsion>  (150) 


>  <PLP.part.buried>  (150) 


>  <PLP.part.hbond>  (150) 


>  <PLP.part.metal>  (150) 


>  <PLP.part.nonpolar>  (150) 


>  <PLP.part.repulsive>  (150) 


>  <RMSD>  (150) 
0.319376411377

>  <Torsion>  (150) 
169.460450784

>  <TorsionO>  (150) 
9.7963905484

>  <TorsionR>  (150) 
179.256841332

>  <Version>  (150) 


>  <product>  (150) 
98|Compound_41|Compounds_3D_F|sdf|16|dock2|1

>  <rmsd>  (150) 
-1

$$$$
128|137677_56|Aromatic_carboxylic_acids_F|sdf|33|dock1|1
     RDKit          3D

 11 11  0  0  0  0  0  0  0  0999 V2000
   -8.6116  -16.1544   11.8887 C   0  0  0  0  0  0  0  0  0  0  0  0
   -7.9978  -14.8484   11.9215 N   0  0  0  0  0  0  0  0  0  0  0  0
   -8.7778  -13.7008   11.8756 C   0  0  0  0  0  0  0  0  0  0  0  0
  -10.0002  -13.7896   11.8139 O   0  0  0  0  0  0  0  0  0  0  0  0
   -8.0808  -12.3609   11.9017 C   0  0  0  0  0  0  0  0  0  0  0  0
   -8.7916  -11.1851   11.5813 C   0  0  0  0  0  0  0  0  0  0  0  0
   -8.1781   -9.9267   11.5989 C   0  0  0  0  0  0  0  0  0  0  0  0
   -6.8391   -9.8089   11.9369 C   0  0  0  0  0  0  0  0  0  0  0  0
   -6.1124  -10.9502   12.2575 C   0  0  0  0  0  0  0  0  0  0  0  0
   -6.7171  -12.2196   12.2428 C   0  0  0  0  0  0  0  0  0  0  0  0
   -5.5419  -13.6455   12.7121 Br  0  0  0  0  0  0  0  0  0  0  0  0
  1  2  1  0
  2  3  1  0
  3  4  2  0
  3  5  1  0
  5  6  2  0
  5 10  1  0
  6  7  1  0
  7  8  2  0
  8  9  1  0
  9 10  2  0
 10 11  1  0
M  END
>  <Gold.Gold.Protein.RotatedWaterAtoms>  (151) 


>  <Gold.Id.Protein>  (151) 


>  <Gold.PLP.Chemscore.CHOScore>  (151) 
0.0000

>  <Gold.PLP.Chemscore.Hbond>  (151) 
1.0000

>  <Gold.PLP.Chemscore.Internal.Correction>  (151) 
0.0000

>  <Gold.PLP.Chemscore.Metal>  (151) 
0.0000

>  <Gold.PLP.Fitness>  (151) 
45.2899

>  <Gold.PLP.PLP>  (151) 
-42.4444

>  <Gold.PLP.ligand.clash>  (151) 
0.0000

>  <Gold.PLP.ligand.torsion>  (151) 
0.0772

>  <Gold.PLP.part.buried>  (151) 
-6.4690

>  <Gold.PLP.part.hbond>  (151) 
-0.6863

>  <Gold.PLP.part.metal>  (151) 
0.0000

>  <Gold.PLP.part.nonpolar>  (151) 
-34.8280

>  <Gold.PLP.part.repulsive>  (151) 
0.1963

>  <Gold.Protein.RotatedAtoms>  (151) 


>  <Gold.Protein.RotatedTorsions>  (151) 


>  <Gold.Protein.RotatedWaterAtoms>  (151) 


>  <Gold.Version>  (151) 
5.3.0

>  <PLP.Chemscore.CHOScore>  (151) 


>  <PLP.Chemscore.Hbond>  (151) 


>  <PLP.Chemscore.Internal.Correction>  (151) 


>  <PLP.Chemscore.Metal>  (151) 


>  <PLP.Fitness>  (151) 


>  <PLP.PLP>  (151) 


>  <PLP.ligand.clash>  (151) 


>  <PLP.ligand.torsion>  (151) 


>  <PLP.part.buried>  (151) 


>  <PLP.part.hbond>  (151) 


>  <PLP.part.metal>  (151) 


>  <PLP.part.nonpolar>  (151) 


>  <PLP.part.repulsive>  (151) 


>  <RMSD>  (151) 
0.428070490903

>  <Torsion>  (151) 
152.444048788

>  <TorsionO>  (151) 
39.0580871276

>  <TorsionR>  (151) 
168.497864085

>  <Version>  (151) 


>  <product>  (151) 
98|Compound_41|Compounds_3D_F|sdf|16|dock2|1

>  <rmsd>  (151) 
-1

$$$$
974|750794_1404|Aromatic_primary_amines_F|sdf|194|dock3|1
     RDKit          3D

 14 14  0  0  0  0  0  0  0  0999 V2000
  -13.6355  -18.1936    9.4145 C   0  0  0  0  0  0  0  0  0  0  0  0
  -13.2544  -19.4497   10.1732 C   0  0  0  0  0  0  0  0  0  0  0  0
  -11.8731  -19.3506   10.5383 O   0  0  0  0  0  0  0  0  0  0  0  0
  -11.6148  -18.5085   11.5823 C   0  0  0  0  0  0  0  0  0  0  0  0
  -12.3947  -18.2810   12.5004 O   0  0  0  0  0  0  0  0  0  0  0  0
  -10.3031  -17.8985   11.4902 C   0  0  0  0  0  0  0  0  0  0  0  0
   -9.1673  -18.4974   10.9931 C   0  0  0  0  0  0  0  0  0  0  0  0
   -8.1448  -17.6055   11.0758 O   0  0  0  0  0  0  0  0  0  0  0  0
   -8.7110  -16.4917   11.6237 C   0  0  0  0  0  0  0  0  0  0  0  0
   -9.9933  -16.6110   11.8915 N   0  0  0  0  0  0  0  0  0  0  0  0
   -7.9611  -15.3718   11.8549 N   0  0  0  0  0  0  0  0  0  0  0  0
   -8.5046  -14.1249   12.0676 C   0  0  0  0  0  0  0  0  0  0  0  0
   -9.6950  -13.8313   12.1035 O   0  0  0  0  0  0  0  0  0  0  0  0
   -7.4448  -13.0785   12.3021 C   0  0  0  0  0  0  0  0  0  0  0  0
  1  2  1  0
  2  3  1  0
  3  4  1  0
  4  5  2  0
  4  6  1  0
  6  7  2  0
  6 10  1  0
  7  8  1  0
  8  9  1  0
  9 10  2  0
  9 11  1  0
 11 12  1  0
 12 13  2  0
 12 14  1  0
M  END
>  <Gold.Gold.Protein.RotatedWaterAtoms>  (152) 


>  <Gold.Id.Protein>  (152) 


>  <Gold.PLP.Chemscore.CHOScore>  (152) 
0.0000

>  <Gold.PLP.Chemscore.Hbond>  (152) 
2.0000

>  <Gold.PLP.Chemscore.Internal.Correction>  (152) 
0.0053

>  <Gold.PLP.Chemscore.Metal>  (152) 
0.0000

>  <Gold.PLP.Fitness>  (152) 
36.8047

>  <Gold.PLP.PLP>  (152) 
-32.7996

>  <Gold.PLP.ligand.clash>  (152) 
0.0000

>  <Gold.PLP.ligand.torsion>  (152) 
1.0001

>  <Gold.PLP.part.buried>  (152) 
-6.5206

>  <Gold.PLP.part.hbond>  (152) 
-2.9156

>  <Gold.PLP.part.metal>  (152) 
0.0000

>  <Gold.PLP.part.nonpolar>  (152) 
-23.4080

>  <Gold.PLP.part.repulsive>  (152) 
0.3100

>  <Gold.Protein.RotatedAtoms>  (152) 


>  <Gold.Protein.RotatedTorsions>  (152) 


>  <Gold.Protein.RotatedWaterAtoms>  (152) 


>  <Gold.Version>  (152) 
5.3.0

>  <PLP.Chemscore.CHOScore>  (152) 


>  <PLP.Chemscore.Hbond>  (152) 


>  <PLP.Chemscore.Internal.Correction>  (152) 


>  <PLP.Chemscore.Metal>  (152) 


>  <PLP.Fitness>  (152) 


>  <PLP.PLP>  (152) 


>  <PLP.ligand.clash>  (152) 


>  <PLP.ligand.torsion>  (152) 


>  <PLP.part.buried>  (152) 


>  <PLP.part.hbond>  (152) 


>  <PLP.part.metal>  (152) 


>  <PLP.part.nonpolar>  (152) 


>  <PLP.part.repulsive>  (152) 


>  <RMSD>  (152) 
0.499949349045

>  <Torsion>  (152) 
159.973716791

>  <TorsionO>  (152) 
19.1052109979

>  <TorsionR>  (152) 
179.078927789

>  <Version>  (152) 


>  <product>  (152) 
98|Compound_41|Compounds_3D_F|sdf|16|dock2|1

>  <rmsd>  (152) 
-1

$$$$
1884|M3006_1781|Aromatic_primary_amines_F|sdf|361|dock3|1
     RDKit          3D

 31 34  0  0  0  0  0  0  0  0999 V2000
  -14.4210  -19.8971    8.7934 C   0  0  0  0  0  0  0  0  0  0  0  0
  -13.9762  -19.4927   10.1894 C   0  0  0  0  0  0  0  0  0  0  0  0
  -14.1356  -20.6409   11.1817 C   0  0  0  0  0  0  0  0  0  0  0  0
  -13.5197  -20.3070   12.5189 C   0  0  0  0  0  0  0  0  0  0  0  0
  -12.9307  -19.2724   12.7954 O   0  0  0  0  0  0  0  0  0  0  0  0
  -13.7110  -21.3451   13.3845 O   0  0  0  0  0  0  0  0  0  0  0  0
  -12.9425  -21.2698   14.5900 C   0  0  0  0  0  0  0  0  0  0  0  0
  -12.8849  -22.6189   15.2889 C   0  0  0  0  0  0  0  0  0  0  0  0
  -11.6552  -22.4172   16.1494 C   0  0  0  0  0  0  0  0  0  0  0  0
  -11.2420  -23.7410   16.7624 C   0  0  0  0  0  0  0  0  0  0  0  0
  -12.3024  -24.2223   17.5862 O   0  0  0  0  0  0  0  0  0  0  0  0
  -13.7888  -24.3384   16.9603 P   0  0  0  0  0  0  0  0  0  0  0  0
  -14.8775  -24.6795   17.9243 O   0  0  0  0  0  0  0  0  0  0  0  0
  -13.9839  -22.9641   16.1174 O   0  0  0  0  0  0  0  0  0  0  0  0
  -13.5991  -25.4435   15.8075 O   0  0  0  0  0  0  0  0  0  0  0  0
  -10.6922  -21.8161   15.2889 O   0  0  0  0  0  0  0  0  0  0  0  0
  -11.4338  -20.9664   14.3653 C   0  0  0  0  0  0  0  0  0  0  0  0
  -10.9052  -21.2017   13.0342 N   0  0  0  0  0  0  0  0  0  0  0  0
  -10.7814  -22.4114   12.4013 C   0  0  0  0  0  0  0  0  0  0  0  0
  -10.2640  -22.2918   11.1953 N   0  0  0  0  0  0  0  0  0  0  0  0
  -10.0274  -20.9476   11.0424 C   0  0  0  0  0  0  0  0  0  0  0  0
  -10.4203  -20.2487   12.1733 C   0  0  0  0  0  0  0  0  0  0  0  0
  -10.3338  -18.9216   12.3641 N   0  0  0  0  0  0  0  0  0  0  0  0
   -9.8057  -18.2730   11.3024 C   0  0  0  0  0  0  0  0  0  0  0  0
   -9.3808  -18.8370   10.1545 N   0  0  0  0  0  0  0  0  0  0  0  0
   -9.4895  -20.1691   10.0244 C   0  0  0  0  0  0  0  0  0  0  0  0
   -9.0330  -20.6622    8.8349 O   0  0  0  0  0  0  0  0  0  0  0  0
   -9.7222  -16.8901   11.4793 N   0  0  0  0  0  0  0  0  0  0  0  0
   -8.5796  -16.1798   11.7761 C   0  0  0  0  0  0  0  0  0  0  0  0
   -7.4445  -16.6221   11.9131 O   0  0  0  0  0  0  0  0  0  0  0  0
   -8.8524  -14.7024   11.8973 C   0  0  0  0  0  0  0  0  0  0  0  0
  1  2  1  0
  2  3  1  0
  3  4  1  0
  4  5  2  0
  4  6  1  0
  6  7  1  0
  7  8  1  0
  7 17  1  0
  8  9  1  0
  8 14  1  0
  9 10  1  0
  9 16  1  0
 10 11  1  0
 11 12  1  0
 12 13  2  0
 12 14  1  0
 12 15  1  0
 16 17  1  0
 17 18  1  0
 18 19  1  0
 18 22  1  0
 19 20  2  0
 20 21  1  0
 21 22  2  0
 21 26  1  0
 22 23  1  0
 23 24  2  0
 24 25  1  0
 24 28  1  0
 25 26  2  0
 26 27  1  0
 28 29  1  0
 29 30  2  0
 29 31  1  0
M  END
>  <Gold.Gold.Protein.RotatedWaterAtoms>  (153) 


>  <Gold.Id.Protein>  (153) 


>  <Gold.PLP.Chemscore.CHOScore>  (153) 
0.0000

>  <Gold.PLP.Chemscore.Hbond>  (153) 
1.2080

>  <Gold.PLP.Chemscore.Internal.Correction>  (153) 
0.1232

>  <Gold.PLP.Chemscore.Metal>  (153) 
0.0000

>  <Gold.PLP.Fitness>  (153) 
47.7145

>  <Gold.PLP.PLP>  (153) 
-46.0218

>  <Gold.PLP.ligand.clash>  (153) 
0.0000

>  <Gold.PLP.ligand.torsion>  (153) 
1.0272

>  <Gold.PLP.part.buried>  (153) 
-2.2958

>  <Gold.PLP.part.hbond>  (153) 
-4.0214

>  <Gold.PLP.part.metal>  (153) 
0.0000

>  <Gold.PLP.part.nonpolar>  (153) 
-41.4699

>  <Gold.PLP.part.repulsive>  (153) 
0.9524

>  <Gold.Protein.RotatedAtoms>  (153) 


>  <Gold.Protein.RotatedTorsions>  (153) 


>  <Gold.Protein.RotatedWaterAtoms>  (153) 


>  <Gold.Version>  (153) 
5.3.0

>  <PLP.Chemscore.CHOScore>  (153) 


>  <PLP.Chemscore.Hbond>  (153) 


>  <PLP.Chemscore.Internal.Correction>  (153) 


>  <PLP.Chemscore.Metal>  (153) 


>  <PLP.Fitness>  (153) 


>  <PLP.PLP>  (153) 


>  <PLP.ligand.clash>  (153) 


>  <PLP.ligand.torsion>  (153) 


>  <PLP.part.buried>  (153) 


>  <PLP.part.hbond>  (153) 


>  <PLP.part.metal>  (153) 


>  <PLP.part.nonpolar>  (153) 


>  <PLP.part.repulsive>  (153) 


>  <RMSD>  (153) 
0.291955871297

>  <Torsion>  (153) 
171.923704933

>  <TorsionO>  (153) 
6.03609353985

>  <TorsionR>  (153) 
177.959798473

>  <Version>  (153) 


>  <product>  (153) 
98|Compound_41|Compounds_3D_F|sdf|16|dock2|1

>  <rmsd>  (153) 
-1

$$$$
193|32168_281|Aromatic_primary_amines_F|sdf|39|dock6|1
     RDKit          3D

 23 25  0  0  0  0  0  0  0  0999 V2000
   -7.8439  -12.1461   11.8919 C   0  0  0  0  0  0  0  0  0  0  0  0
   -8.5691  -13.4472   11.6781 C   0  0  0  0  0  0  0  0  0  0  0  0
   -9.7886  -13.4981   11.5208 O   0  0  0  0  0  0  0  0  0  0  0  0
   -7.7264  -14.5390   11.7020 N   0  0  0  0  0  0  0  0  0  0  0  0
   -8.1889  -15.8197   11.5323 C   0  0  0  0  0  0  0  0  0  0  0  0
   -9.4747  -16.2039   11.8163 N   0  0  0  0  0  0  0  0  0  0  0  0
   -9.5964  -17.5375   11.5379 C   0  0  0  0  0  0  0  0  0  0  0  0
  -10.6643  -18.4283   11.6415 C   0  0  0  0  0  0  0  0  0  0  0  0
  -10.4051  -19.7586   11.2778 C   0  0  0  0  0  0  0  0  0  0  0  0
   -9.1530  -20.1507   10.7795 C   0  0  0  0  0  0  0  0  0  0  0  0
   -8.1017  -19.2294   10.6839 C   0  0  0  0  0  0  0  0  0  0  0  0
   -8.3349  -17.9032   11.0783 C   0  0  0  0  0  0  0  0  0  0  0  0
   -7.4773  -16.8281   11.0838 N   0  0  0  0  0  0  0  0  0  0  0  0
   -8.8530  -21.7658   10.2429 Cl  0  0  0  0  0  0  0  0  0  0  0  0
  -11.4669  -20.6323   11.3734 O   0  0  0  0  0  0  0  0  0  0  0  0
  -12.5262  -20.4408   10.5053 C   0  0  0  0  0  0  0  0  0  0  0  0
  -13.3188  -19.2846   10.5304 C   0  0  0  0  0  0  0  0  0  0  0  0
  -14.3665  -19.1344    9.6224 C   0  0  0  0  0  0  0  0  0  0  0  0
  -14.6219  -20.1279    8.6796 C   0  0  0  0  0  0  0  0  0  0  0  0
  -13.8238  -21.2756    8.6345 C   0  0  0  0  0  0  0  0  0  0  0  0
  -12.7674  -21.4342    9.5416 C   0  0  0  0  0  0  0  0  0  0  0  0
  -11.7588  -22.8458    9.4996 Cl  0  0  0  0  0  0  0  0  0  0  0  0
  -14.1988  -22.4584    7.4296 Cl  0  0  0  0  0  0  0  0  0  0  0  0
  1  2  1  0
  2  3  2  0
  2  4  1  0
  4  5  1  0
  5  6  1  0
  5 13  2  0
  6  7  1  0
  7  8  2  0
  7 12  1  0
  8  9  1  0
  9 10  2  0
  9 15  1  0
 10 11  1  0
 10 14  1  0
 11 12  2  0
 12 13  1  0
 15 16  1  0
 16 17  2  0
 16 21  1  0
 17 18  1  0
 18 19  2  0
 19 20  1  0
 20 21  2  0
 20 23  1  0
 21 22  1  0
M  END
>  <Gold.Gold.Protein.RotatedWaterAtoms>  (154) 


>  <Gold.Id.Protein>  (154) 


>  <Gold.PLP.Chemscore.CHOScore>  (154) 
0.0000

>  <Gold.PLP.Chemscore.Hbond>  (154) 
1.0000

>  <Gold.PLP.Chemscore.Internal.Correction>  (154) 
0.0086

>  <Gold.PLP.Chemscore.Metal>  (154) 
0.0000

>  <Gold.PLP.Fitness>  (154) 
50.7139

>  <Gold.PLP.PLP>  (154) 
-48.1706

>  <Gold.PLP.ligand.clash>  (154) 
0.0000

>  <Gold.PLP.ligand.torsion>  (154) 
0.2327

>  <Gold.PLP.part.buried>  (154) 
-6.5205

>  <Gold.PLP.part.hbond>  (154) 
-2.0000

>  <Gold.PLP.part.metal>  (154) 
0.0000

>  <Gold.PLP.part.nonpolar>  (154) 
-39.3857

>  <Gold.PLP.part.repulsive>  (154) 
0.3298

>  <Gold.Protein.RotatedAtoms>  (154) 


>  <Gold.Protein.RotatedTorsions>  (154) 


>  <Gold.Protein.RotatedWaterAtoms>  (154) 


>  <Gold.Version>  (154) 
5.3.0

>  <PLP.Chemscore.CHOScore>  (154) 


>  <PLP.Chemscore.Hbond>  (154) 


>  <PLP.Chemscore.Internal.Correction>  (154) 


>  <PLP.Chemscore.Metal>  (154) 


>  <PLP.Fitness>  (154) 


>  <PLP.PLP>  (154) 


>  <PLP.ligand.clash>  (154) 


>  <PLP.ligand.torsion>  (154) 


>  <PLP.part.buried>  (154) 


>  <PLP.part.hbond>  (154) 


>  <PLP.part.metal>  (154) 


>  <PLP.part.nonpolar>  (154) 


>  <PLP.part.repulsive>  (154) 


>  <RMSD>  (154) 
0.439733510035

>  <Torsion>  (154) 
177.672185574

>  <TorsionO>  (154) 
4.31728583372

>  <TorsionR>  (154) 
173.35489974

>  <Version>  (154) 


>  <product>  (154) 
98|Compound_41|Compounds_3D_F|sdf|16|dock2|1

>  <rmsd>  (154) 
-1

$$$$
89|Compound_32|Compounds_3D_F|sdf|14|dock6|1
     RDKit          3D

  9  9  0  0  0  0  0  0  0  0999 V2000
  -15.1560  -22.2152    7.4013 B   0  0  0  0  0  0  0  0  0  0  0  0
  -14.4244  -21.3477    8.4858 C   0  0  0  0  0  0  0  0  0  0  0  0
  -13.8742  -21.8853    9.4231 O   0  0  0  0  0  0  0  0  0  0  0  0
  -14.4080  -20.0042    8.3751 N   0  0  0  0  0  0  0  0  0  0  0  0
  -13.7252  -19.1945    9.3877 C   0  0  0  0  0  0  0  0  0  0  0  0
  -14.1896  -19.5033   10.8123 C   0  0  0  0  0  0  0  0  0  0  0  0
  -12.1936  -19.1597    9.2260 C   0  0  0  0  0  0  0  0  0  0  0  0
  -12.3107  -17.7487    9.4993 O   0  0  0  0  0  0  0  0  0  0  0  0
  -13.6858  -17.6912    9.0587 C   0  0  0  0  0  0  0  0  0  0  0  0
  1  2  1  0
  2  3  2  0
  2  4  1  0
  4  5  1  0
  5  6  1  0
  5  7  1  0
  5  9  1  0
  7  8  1  0
  8  9  1  0
M  END
>  <Gold.Gold.Protein.RotatedWaterAtoms>  (155) 


>  <Gold.Id.Protein>  (155) 


>  <Gold.PLP.Chemscore.CHOScore>  (155) 
0.0000

>  <Gold.PLP.Chemscore.Hbond>  (155) 
1.9760

>  <Gold.PLP.Chemscore.Internal.Correction>  (155) 
0.2523

>  <Gold.PLP.Chemscore.Metal>  (155) 
0.0000

>  <Gold.PLP.Fitness>  (155) 
29.9771

>  <Gold.PLP.PLP>  (155) 
-24.1226

>  <Gold.PLP.ligand.clash>  (155) 
0.0000

>  <Gold.PLP.ligand.torsion>  (155) 
0.1629

>  <Gold.PLP.part.buried>  (155) 
-3.4436

>  <Gold.PLP.part.hbond>  (155) 
-2.0000

>  <Gold.PLP.part.metal>  (155) 
0.0000

>  <Gold.PLP.part.nonpolar>  (155) 
-19.6494

>  <Gold.PLP.part.repulsive>  (155) 
0.2414

>  <Gold.Protein.RotatedAtoms>  (155) 


>  <Gold.Protein.RotatedTorsions>  (155) 


>  <Gold.Protein.RotatedWaterAtoms>  (155) 


>  <Gold.Version>  (155) 
5.3.0

>  <PLP.Chemscore.CHOScore>  (155) 


>  <PLP.Chemscore.Hbond>  (155) 


>  <PLP.Chemscore.Internal.Correction>  (155) 


>  <PLP.Chemscore.Metal>  (155) 


>  <PLP.Fitness>  (155) 


>  <PLP.PLP>  (155) 


>  <PLP.ligand.clash>  (155) 


>  <PLP.ligand.torsion>  (155) 


>  <PLP.part.buried>  (155) 


>  <PLP.part.hbond>  (155) 


>  <PLP.part.metal>  (155) 


>  <PLP.part.nonpolar>  (155) 


>  <PLP.part.repulsive>  (155) 


>  <Version>  (155) 


$$$$
94|664022_40|Aromatic_carboxylic_acids_F|sdf|24|dock1|1
     RDKit          3D

 12 12  0  0  0  0  0  0  0  0999 V2000
   -8.2596  -17.1212   11.4595 C   0  0  0  0  0  0  0  0  0  0  0  0
   -7.6366  -15.8367   11.6688 N   0  0  0  0  0  0  0  0  0  0  0  0
   -8.3409  -14.6553   11.5719 C   0  0  0  0  0  0  0  0  0  0  0  0
   -9.5296  -14.5547   11.2978 O   0  0  0  0  0  0  0  0  0  0  0  0
   -7.5420  -13.4431   11.8503 C   0  0  0  0  0  0  0  0  0  0  0  0
   -8.1627  -12.1983   11.6738 C   0  0  0  0  0  0  0  0  0  0  0  0
   -7.4390  -11.0301   11.9055 C   0  0  0  0  0  0  0  0  0  0  0  0
   -6.1069  -11.0910   12.3103 C   0  0  0  0  0  0  0  0  0  0  0  0
   -5.4897  -12.3324   12.4853 C   0  0  0  0  0  0  0  0  0  0  0  0
   -6.2035  -13.5136   12.2549 C   0  0  0  0  0  0  0  0  0  0  0  0
   -5.3062  -15.1564   12.5638 Br  0  0  0  0  0  0  0  0  0  0  0  0
   -8.1960   -9.5005   11.6887 Cl  0  0  0  0  0  0  0  0  0  0  0  0
  1  2  1  0
  2  3  1  0
  3  4  2  0
  3  5  1  0
  5  6  2  0
  5 10  1  0
  6  7  1  0
  7  8  2  0
  7 12  1  0
  8  9  1  0
  9 10  2  0
 10 11  1  0
M  END
>  <Gold.Gold.Protein.RotatedWaterAtoms>  (156) 


>  <Gold.Id.Protein>  (156) 


>  <Gold.PLP.Chemscore.CHOScore>  (156) 
0.0000

>  <Gold.PLP.Chemscore.Hbond>  (156) 
0.4160

>  <Gold.PLP.Chemscore.Internal.Correction>  (156) 
0.0004

>  <Gold.PLP.Chemscore.Metal>  (156) 
0.0000

>  <Gold.PLP.Fitness>  (156) 
48.9046

>  <Gold.PLP.PLP>  (156) 
-47.6744

>  <Gold.PLP.ligand.clash>  (156) 
0.0000

>  <Gold.PLP.ligand.torsion>  (156) 
0.0091

>  <Gold.PLP.part.buried>  (156) 
-7.3578

>  <Gold.PLP.part.hbond>  (156) 
-0.5127

>  <Gold.PLP.part.metal>  (156) 
0.0000

>  <Gold.PLP.part.nonpolar>  (156) 
-40.3098

>  <Gold.PLP.part.repulsive>  (156) 
0.1684

>  <Gold.Protein.RotatedAtoms>  (156) 


>  <Gold.Protein.RotatedTorsions>  (156) 


>  <Gold.Protein.RotatedWaterAtoms>  (156) 


>  <Gold.Version>  (156) 
5.3.0

>  <PLP.Chemscore.CHOScore>  (156) 


>  <PLP.Chemscore.Hbond>  (156) 


>  <PLP.Chemscore.Internal.Correction>  (156) 


>  <PLP.Chemscore.Metal>  (156) 


>  <PLP.Fitness>  (156) 


>  <PLP.PLP>  (156) 


>  <PLP.ligand.clash>  (156) 


>  <PLP.ligand.torsion>  (156) 


>  <PLP.part.buried>  (156) 


>  <PLP.part.hbond>  (156) 


>  <PLP.part.metal>  (156) 


>  <PLP.part.nonpolar>  (156) 


>  <PLP.part.repulsive>  (156) 


>  <RMSD>  (156) 
0.30972197429

>  <Torsion>  (156) 
172.929186758

>  <TorsionO>  (156) 
24.4968065243

>  <TorsionR>  (156) 
162.574006718

>  <Version>  (156) 


>  <product>  (156) 
89|Compound_32|Compounds_3D_F|sdf|14|dock6|1

>  <rmsd>  (156) 
-1

$$$$
110|565385_49|Aromatic_carboxylic_acids_F|sdf|29|dock1|1
     RDKit          3D

 13 13  0  0  0  0  0  0  0  0999 V2000
  -10.1118  -17.9021   11.6320 C   0  0  0  0  0  0  0  0  0  0  0  0
   -9.7537  -16.5043   11.6546 N   0  0  0  0  0  0  0  0  0  0  0  0
   -8.4330  -16.1187   11.7930 C   0  0  0  0  0  0  0  0  0  0  0  0
   -7.5159  -16.9298   11.9008 O   0  0  0  0  0  0  0  0  0  0  0  0
   -8.1234  -14.6552   11.8105 C   0  0  0  0  0  0  0  0  0  0  0  0
   -9.0636  -13.6551   11.5375 C   0  0  0  0  0  0  0  0  0  0  0  0
   -8.6966  -12.3009   11.5726 C   0  0  0  0  0  0  0  0  0  0  0  0
   -7.3879  -11.9195   11.8809 C   0  0  0  0  0  0  0  0  0  0  0  0
   -6.4486  -12.9235   12.1551 C   0  0  0  0  0  0  0  0  0  0  0  0
   -6.8098  -14.2750   12.1207 C   0  0  0  0  0  0  0  0  0  0  0  0
   -4.6444  -12.5025   12.5849 Br  0  0  0  0  0  0  0  0  0  0  0  0
   -6.9476  -10.6242   11.9372 O   0  0  0  0  0  0  0  0  0  0  0  0
   -7.9020   -9.5910   11.7256 C   0  0  0  0  0  0  0  0  0  0  0  0
  1  2  1  0
  2  3  1  0
  3  4  2  0
  3  5  1  0
  5  6  2  0
  5 10  1  0
  6  7  1  0
  7  8  2  0
  8  9  1  0
  8 12  1  0
  9 10  2  0
  9 11  1  0
 12 13  1  0
M  END
>  <Gold.Gold.Protein.RotatedWaterAtoms>  (157) 


>  <Gold.Id.Protein>  (157) 


>  <Gold.PLP.Chemscore.CHOScore>  (157) 
0.0000

>  <Gold.PLP.Chemscore.Hbond>  (157) 
1.0000

>  <Gold.PLP.Chemscore.Internal.Correction>  (157) 
0.0000

>  <Gold.PLP.Chemscore.Metal>  (157) 
0.0000

>  <Gold.PLP.Fitness>  (157) 
43.9775

>  <Gold.PLP.PLP>  (157) 
-41.0517

>  <Gold.PLP.ligand.clash>  (157) 
0.0000

>  <Gold.PLP.ligand.torsion>  (157) 
0.0371

>  <Gold.PLP.part.buried>  (157) 
-3.7367

>  <Gold.PLP.part.hbond>  (157) 
-1.0000

>  <Gold.PLP.part.metal>  (157) 
0.0000

>  <Gold.PLP.part.nonpolar>  (157) 
-36.7483

>  <Gold.PLP.part.repulsive>  (157) 
0.4054

>  <Gold.Protein.RotatedAtoms>  (157) 


>  <Gold.Protein.RotatedTorsions>  (157) 


>  <Gold.Protein.RotatedWaterAtoms>  (157) 


>  <Gold.Version>  (157) 
5.3.0

>  <PLP.Chemscore.CHOScore>  (157) 


>  <PLP.Chemscore.Hbond>  (157) 


>  <PLP.Chemscore.Internal.Correction>  (157) 


>  <PLP.Chemscore.Metal>  (157) 


>  <PLP.Fitness>  (157) 


>  <PLP.PLP>  (157) 


>  <PLP.ligand.clash>  (157) 


>  <PLP.ligand.torsion>  (157) 


>  <PLP.part.buried>  (157) 


>  <PLP.part.hbond>  (157) 


>  <PLP.part.metal>  (157) 


>  <PLP.part.nonpolar>  (157) 


>  <PLP.part.repulsive>  (157) 


>  <RMSD>  (157) 
0.319376411377

>  <Torsion>  (157) 
169.460450784

>  <TorsionO>  (157) 
9.7963905484

>  <TorsionR>  (157) 
179.256841332

>  <Version>  (157) 


>  <product>  (157) 
89|Compound_32|Compounds_3D_F|sdf|14|dock6|1

>  <rmsd>  (157) 
-1

$$$$
128|137677_56|Aromatic_carboxylic_acids_F|sdf|33|dock1|1
     RDKit          3D

 11 11  0  0  0  0  0  0  0  0999 V2000
   -8.6116  -16.1544   11.8887 C   0  0  0  0  0  0  0  0  0  0  0  0
   -7.9978  -14.8484   11.9215 N   0  0  0  0  0  0  0  0  0  0  0  0
   -8.7778  -13.7008   11.8756 C   0  0  0  0  0  0  0  0  0  0  0  0
  -10.0002  -13.7896   11.8139 O   0  0  0  0  0  0  0  0  0  0  0  0
   -8.0808  -12.3609   11.9017 C   0  0  0  0  0  0  0  0  0  0  0  0
   -8.7916  -11.1851   11.5813 C   0  0  0  0  0  0  0  0  0  0  0  0
   -8.1781   -9.9267   11.5989 C   0  0  0  0  0  0  0  0  0  0  0  0
   -6.8391   -9.8089   11.9369 C   0  0  0  0  0  0  0  0  0  0  0  0
   -6.1124  -10.9502   12.2575 C   0  0  0  0  0  0  0  0  0  0  0  0
   -6.7171  -12.2196   12.2428 C   0  0  0  0  0  0  0  0  0  0  0  0
   -5.5419  -13.6455   12.7121 Br  0  0  0  0  0  0  0  0  0  0  0  0
  1  2  1  0
  2  3  1  0
  3  4  2  0
  3  5  1  0
  5  6  2  0
  5 10  1  0
  6  7  1  0
  7  8  2  0
  8  9  1  0
  9 10  2  0
 10 11  1  0
M  END
>  <Gold.Gold.Protein.RotatedWaterAtoms>  (158) 


>  <Gold.Id.Protein>  (158) 


>  <Gold.PLP.Chemscore.CHOScore>  (158) 
0.0000

>  <Gold.PLP.Chemscore.Hbond>  (158) 
1.0000

>  <Gold.PLP.Chemscore.Internal.Correction>  (158) 
0.0000

>  <Gold.PLP.Chemscore.Metal>  (158) 
0.0000

>  <Gold.PLP.Fitness>  (158) 
45.2899

>  <Gold.PLP.PLP>  (158) 
-42.4444

>  <Gold.PLP.ligand.clash>  (158) 
0.0000

>  <Gold.PLP.ligand.torsion>  (158) 
0.0772

>  <Gold.PLP.part.buried>  (158) 
-6.4690

>  <Gold.PLP.part.hbond>  (158) 
-0.6863

>  <Gold.PLP.part.metal>  (158) 
0.0000

>  <Gold.PLP.part.nonpolar>  (158) 
-34.8280

>  <Gold.PLP.part.repulsive>  (158) 
0.1963

>  <Gold.Protein.RotatedAtoms>  (158) 


>  <Gold.Protein.RotatedTorsions>  (158) 


>  <Gold.Protein.RotatedWaterAtoms>  (158) 


>  <Gold.Version>  (158) 
5.3.0

>  <PLP.Chemscore.CHOScore>  (158) 


>  <PLP.Chemscore.Hbond>  (158) 


>  <PLP.Chemscore.Internal.Correction>  (158) 


>  <PLP.Chemscore.Metal>  (158) 


>  <PLP.Fitness>  (158) 


>  <PLP.PLP>  (158) 


>  <PLP.ligand.clash>  (158) 


>  <PLP.ligand.torsion>  (158) 


>  <PLP.part.buried>  (158) 


>  <PLP.part.hbond>  (158) 


>  <PLP.part.metal>  (158) 


>  <PLP.part.nonpolar>  (158) 


>  <PLP.part.repulsive>  (158) 


>  <RMSD>  (158) 
0.428070490903

>  <Torsion>  (158) 
152.444048788

>  <TorsionO>  (158) 
39.0580871276

>  <TorsionR>  (158) 
168.497864085

>  <Version>  (158) 


>  <product>  (158) 
89|Compound_32|Compounds_3D_F|sdf|14|dock6|1

>  <rmsd>  (158) 
-1

$$$$
974|750794_1404|Aromatic_primary_amines_F|sdf|194|dock3|1
     RDKit          3D

 14 14  0  0  0  0  0  0  0  0999 V2000
  -13.6355  -18.1936    9.4145 C   0  0  0  0  0  0  0  0  0  0  0  0
  -13.2544  -19.4497   10.1732 C   0  0  0  0  0  0  0  0  0  0  0  0
  -11.8731  -19.3506   10.5383 O   0  0  0  0  0  0  0  0  0  0  0  0
  -11.6148  -18.5085   11.5823 C   0  0  0  0  0  0  0  0  0  0  0  0
  -12.3947  -18.2810   12.5004 O   0  0  0  0  0  0  0  0  0  0  0  0
  -10.3031  -17.8985   11.4902 C   0  0  0  0  0  0  0  0  0  0  0  0
   -9.1673  -18.4974   10.9931 C   0  0  0  0  0  0  0  0  0  0  0  0
   -8.1448  -17.6055   11.0758 O   0  0  0  0  0  0  0  0  0  0  0  0
   -8.7110  -16.4917   11.6237 C   0  0  0  0  0  0  0  0  0  0  0  0
   -9.9933  -16.6110   11.8915 N   0  0  0  0  0  0  0  0  0  0  0  0
   -7.9611  -15.3718   11.8549 N   0  0  0  0  0  0  0  0  0  0  0  0
   -8.5046  -14.1249   12.0676 C   0  0  0  0  0  0  0  0  0  0  0  0
   -9.6950  -13.8313   12.1035 O   0  0  0  0  0  0  0  0  0  0  0  0
   -7.4448  -13.0785   12.3021 C   0  0  0  0  0  0  0  0  0  0  0  0
  1  2  1  0
  2  3  1  0
  3  4  1  0
  4  5  2  0
  4  6  1  0
  6  7  2  0
  6 10  1  0
  7  8  1  0
  8  9  1  0
  9 10  2  0
  9 11  1  0
 11 12  1  0
 12 13  2  0
 12 14  1  0
M  END
>  <Gold.Gold.Protein.RotatedWaterAtoms>  (159) 


>  <Gold.Id.Protein>  (159) 


>  <Gold.PLP.Chemscore.CHOScore>  (159) 
0.0000

>  <Gold.PLP.Chemscore.Hbond>  (159) 
2.0000

>  <Gold.PLP.Chemscore.Internal.Correction>  (159) 
0.0053

>  <Gold.PLP.Chemscore.Metal>  (159) 
0.0000

>  <Gold.PLP.Fitness>  (159) 
36.8047

>  <Gold.PLP.PLP>  (159) 
-32.7996

>  <Gold.PLP.ligand.clash>  (159) 
0.0000

>  <Gold.PLP.ligand.torsion>  (159) 
1.0001

>  <Gold.PLP.part.buried>  (159) 
-6.5206

>  <Gold.PLP.part.hbond>  (159) 
-2.9156

>  <Gold.PLP.part.metal>  (159) 
0.0000

>  <Gold.PLP.part.nonpolar>  (159) 
-23.4080

>  <Gold.PLP.part.repulsive>  (159) 
0.3100

>  <Gold.Protein.RotatedAtoms>  (159) 


>  <Gold.Protein.RotatedTorsions>  (159) 


>  <Gold.Protein.RotatedWaterAtoms>  (159) 


>  <Gold.Version>  (159) 
5.3.0

>  <PLP.Chemscore.CHOScore>  (159) 


>  <PLP.Chemscore.Hbond>  (159) 


>  <PLP.Chemscore.Internal.Correction>  (159) 


>  <PLP.Chemscore.Metal>  (159) 


>  <PLP.Fitness>  (159) 


>  <PLP.PLP>  (159) 


>  <PLP.ligand.clash>  (159) 


>  <PLP.ligand.torsion>  (159) 


>  <PLP.part.buried>  (159) 


>  <PLP.part.hbond>  (159) 


>  <PLP.part.metal>  (159) 


>  <PLP.part.nonpolar>  (159) 


>  <PLP.part.repulsive>  (159) 


>  <RMSD>  (159) 
0.499949349045

>  <Torsion>  (159) 
159.973716791

>  <TorsionO>  (159) 
19.1052109979

>  <TorsionR>  (159) 
179.078927789

>  <Version>  (159) 


>  <product>  (159) 
89|Compound_32|Compounds_3D_F|sdf|14|dock6|1

>  <rmsd>  (159) 
-1

$$$$
1884|M3006_1781|Aromatic_primary_amines_F|sdf|361|dock3|1
     RDKit          3D

 31 34  0  0  0  0  0  0  0  0999 V2000
  -14.4210  -19.8971    8.7934 C   0  0  0  0  0  0  0  0  0  0  0  0
  -13.9762  -19.4927   10.1894 C   0  0  0  0  0  0  0  0  0  0  0  0
  -14.1356  -20.6409   11.1817 C   0  0  0  0  0  0  0  0  0  0  0  0
  -13.5197  -20.3070   12.5189 C   0  0  0  0  0  0  0  0  0  0  0  0
  -12.9307  -19.2724   12.7954 O   0  0  0  0  0  0  0  0  0  0  0  0
  -13.7110  -21.3451   13.3845 O   0  0  0  0  0  0  0  0  0  0  0  0
  -12.9425  -21.2698   14.5900 C   0  0  0  0  0  0  0  0  0  0  0  0
  -12.8849  -22.6189   15.2889 C   0  0  0  0  0  0  0  0  0  0  0  0
  -11.6552  -22.4172   16.1494 C   0  0  0  0  0  0  0  0  0  0  0  0
  -11.2420  -23.7410   16.7624 C   0  0  0  0  0  0  0  0  0  0  0  0
  -12.3024  -24.2223   17.5862 O   0  0  0  0  0  0  0  0  0  0  0  0
  -13.7888  -24.3384   16.9603 P   0  0  0  0  0  0  0  0  0  0  0  0
  -14.8775  -24.6795   17.9243 O   0  0  0  0  0  0  0  0  0  0  0  0
  -13.9839  -22.9641   16.1174 O   0  0  0  0  0  0  0  0  0  0  0  0
  -13.5991  -25.4435   15.8075 O   0  0  0  0  0  0  0  0  0  0  0  0
  -10.6922  -21.8161   15.2889 O   0  0  0  0  0  0  0  0  0  0  0  0
  -11.4338  -20.9664   14.3653 C   0  0  0  0  0  0  0  0  0  0  0  0
  -10.9052  -21.2017   13.0342 N   0  0  0  0  0  0  0  0  0  0  0  0
  -10.7814  -22.4114   12.4013 C   0  0  0  0  0  0  0  0  0  0  0  0
  -10.2640  -22.2918   11.1953 N   0  0  0  0  0  0  0  0  0  0  0  0
  -10.0274  -20.9476   11.0424 C   0  0  0  0  0  0  0  0  0  0  0  0
  -10.4203  -20.2487   12.1733 C   0  0  0  0  0  0  0  0  0  0  0  0
  -10.3338  -18.9216   12.3641 N   0  0  0  0  0  0  0  0  0  0  0  0
   -9.8057  -18.2730   11.3024 C   0  0  0  0  0  0  0  0  0  0  0  0
   -9.3808  -18.8370   10.1545 N   0  0  0  0  0  0  0  0  0  0  0  0
   -9.4895  -20.1691   10.0244 C   0  0  0  0  0  0  0  0  0  0  0  0
   -9.0330  -20.6622    8.8349 O   0  0  0  0  0  0  0  0  0  0  0  0
   -9.7222  -16.8901   11.4793 N   0  0  0  0  0  0  0  0  0  0  0  0
   -8.5796  -16.1798   11.7761 C   0  0  0  0  0  0  0  0  0  0  0  0
   -7.4445  -16.6221   11.9131 O   0  0  0  0  0  0  0  0  0  0  0  0
   -8.8524  -14.7024   11.8973 C   0  0  0  0  0  0  0  0  0  0  0  0
  1  2  1  0
  2  3  1  0
  3  4  1  0
  4  5  2  0
  4  6  1  0
  6  7  1  0
  7  8  1  0
  7 17  1  0
  8  9  1  0
  8 14  1  0
  9 10  1  0
  9 16  1  0
 10 11  1  0
 11 12  1  0
 12 13  2  0
 12 14  1  0
 12 15  1  0
 16 17  1  0
 17 18  1  0
 18 19  1  0
 18 22  1  0
 19 20  2  0
 20 21  1  0
 21 22  2  0
 21 26  1  0
 22 23  1  0
 23 24  2  0
 24 25  1  0
 24 28  1  0
 25 26  2  0
 26 27  1  0
 28 29  1  0
 29 30  2  0
 29 31  1  0
M  END
>  <Gold.Gold.Protein.RotatedWaterAtoms>  (160) 


>  <Gold.Id.Protein>  (160) 


>  <Gold.PLP.Chemscore.CHOScore>  (160) 
0.0000

>  <Gold.PLP.Chemscore.Hbond>  (160) 
1.2080

>  <Gold.PLP.Chemscore.Internal.Correction>  (160) 
0.1232

>  <Gold.PLP.Chemscore.Metal>  (160) 
0.0000

>  <Gold.PLP.Fitness>  (160) 
47.7145

>  <Gold.PLP.PLP>  (160) 
-46.0218

>  <Gold.PLP.ligand.clash>  (160) 
0.0000

>  <Gold.PLP.ligand.torsion>  (160) 
1.0272

>  <Gold.PLP.part.buried>  (160) 
-2.2958

>  <Gold.PLP.part.hbond>  (160) 
-4.0214

>  <Gold.PLP.part.metal>  (160) 
0.0000

>  <Gold.PLP.part.nonpolar>  (160) 
-41.4699

>  <Gold.PLP.part.repulsive>  (160) 
0.9524

>  <Gold.Protein.RotatedAtoms>  (160) 


>  <Gold.Protein.RotatedTorsions>  (160) 


>  <Gold.Protein.RotatedWaterAtoms>  (160) 


>  <Gold.Version>  (160) 
5.3.0

>  <PLP.Chemscore.CHOScore>  (160) 


>  <PLP.Chemscore.Hbond>  (160) 


>  <PLP.Chemscore.Internal.Correction>  (160) 


>  <PLP.Chemscore.Metal>  (160) 


>  <PLP.Fitness>  (160) 


>  <PLP.PLP>  (160) 


>  <PLP.ligand.clash>  (160) 


>  <PLP.ligand.torsion>  (160) 


>  <PLP.part.buried>  (160) 


>  <PLP.part.hbond>  (160) 


>  <PLP.part.metal>  (160) 


>  <PLP.part.nonpolar>  (160) 


>  <PLP.part.repulsive>  (160) 


>  <RMSD>  (160) 
0.291955871297

>  <Torsion>  (160) 
171.923704933

>  <TorsionO>  (160) 
6.03609353985

>  <TorsionR>  (160) 
177.959798473

>  <Version>  (160) 


>  <product>  (160) 
89|Compound_32|Compounds_3D_F|sdf|14|dock6|1

>  <rmsd>  (160) 
-1

$$$$
193|32168_281|Aromatic_primary_amines_F|sdf|39|dock6|1
     RDKit          3D

 23 25  0  0  0  0  0  0  0  0999 V2000
   -7.8439  -12.1461   11.8919 C   0  0  0  0  0  0  0  0  0  0  0  0
   -8.5691  -13.4472   11.6781 C   0  0  0  0  0  0  0  0  0  0  0  0
   -9.7886  -13.4981   11.5208 O   0  0  0  0  0  0  0  0  0  0  0  0
   -7.7264  -14.5390   11.7020 N   0  0  0  0  0  0  0  0  0  0  0  0
   -8.1889  -15.8197   11.5323 C   0  0  0  0  0  0  0  0  0  0  0  0
   -9.4747  -16.2039   11.8163 N   0  0  0  0  0  0  0  0  0  0  0  0
   -9.5964  -17.5375   11.5379 C   0  0  0  0  0  0  0  0  0  0  0  0
  -10.6643  -18.4283   11.6415 C   0  0  0  0  0  0  0  0  0  0  0  0
  -10.4051  -19.7586   11.2778 C   0  0  0  0  0  0  0  0  0  0  0  0
   -9.1530  -20.1507   10.7795 C   0  0  0  0  0  0  0  0  0  0  0  0
   -8.1017  -19.2294   10.6839 C   0  0  0  0  0  0  0  0  0  0  0  0
   -8.3349  -17.9032   11.0783 C   0  0  0  0  0  0  0  0  0  0  0  0
   -7.4773  -16.8281   11.0838 N   0  0  0  0  0  0  0  0  0  0  0  0
   -8.8530  -21.7658   10.2429 Cl  0  0  0  0  0  0  0  0  0  0  0  0
  -11.4669  -20.6323   11.3734 O   0  0  0  0  0  0  0  0  0  0  0  0
  -12.5262  -20.4408   10.5053 C   0  0  0  0  0  0  0  0  0  0  0  0
  -13.3188  -19.2846   10.5304 C   0  0  0  0  0  0  0  0  0  0  0  0
  -14.3665  -19.1344    9.6224 C   0  0  0  0  0  0  0  0  0  0  0  0
  -14.6219  -20.1279    8.6796 C   0  0  0  0  0  0  0  0  0  0  0  0
  -13.8238  -21.2756    8.6345 C   0  0  0  0  0  0  0  0  0  0  0  0
  -12.7674  -21.4342    9.5416 C   0  0  0  0  0  0  0  0  0  0  0  0
  -11.7588  -22.8458    9.4996 Cl  0  0  0  0  0  0  0  0  0  0  0  0
  -14.1988  -22.4584    7.4296 Cl  0  0  0  0  0  0  0  0  0  0  0  0
  1  2  1  0
  2  3  2  0
  2  4  1  0
  4  5  1  0
  5  6  1  0
  5 13  2  0
  6  7  1  0
  7  8  2  0
  7 12  1  0
  8  9  1  0
  9 10  2  0
  9 15  1  0
 10 11  1  0
 10 14  1  0
 11 12  2  0
 12 13  1  0
 15 16  1  0
 16 17  2  0
 16 21  1  0
 17 18  1  0
 18 19  2  0
 19 20  1  0
 20 21  2  0
 20 23  1  0
 21 22  1  0
M  END
>  <Gold.Gold.Protein.RotatedWaterAtoms>  (161) 


>  <Gold.Id.Protein>  (161) 


>  <Gold.PLP.Chemscore.CHOScore>  (161) 
0.0000

>  <Gold.PLP.Chemscore.Hbond>  (161) 
1.0000

>  <Gold.PLP.Chemscore.Internal.Correction>  (161) 
0.0086

>  <Gold.PLP.Chemscore.Metal>  (161) 
0.0000

>  <Gold.PLP.Fitness>  (161) 
50.7139

>  <Gold.PLP.PLP>  (161) 
-48.1706

>  <Gold.PLP.ligand.clash>  (161) 
0.0000

>  <Gold.PLP.ligand.torsion>  (161) 
0.2327

>  <Gold.PLP.part.buried>  (161) 
-6.5205

>  <Gold.PLP.part.hbond>  (161) 
-2.0000

>  <Gold.PLP.part.metal>  (161) 
0.0000

>  <Gold.PLP.part.nonpolar>  (161) 
-39.3857

>  <Gold.PLP.part.repulsive>  (161) 
0.3298

>  <Gold.Protein.RotatedAtoms>  (161) 


>  <Gold.Protein.RotatedTorsions>  (161) 


>  <Gold.Protein.RotatedWaterAtoms>  (161) 


>  <Gold.Version>  (161) 
5.3.0

>  <PLP.Chemscore.CHOScore>  (161) 


>  <PLP.Chemscore.Hbond>  (161) 


>  <PLP.Chemscore.Internal.Correction>  (161) 


>  <PLP.Chemscore.Metal>  (161) 


>  <PLP.Fitness>  (161) 


>  <PLP.PLP>  (161) 


>  <PLP.ligand.clash>  (161) 


>  <PLP.ligand.torsion>  (161) 


>  <PLP.part.buried>  (161) 


>  <PLP.part.hbond>  (161) 


>  <PLP.part.metal>  (161) 


>  <PLP.part.nonpolar>  (161) 


>  <PLP.part.repulsive>  (161) 


>  <RMSD>  (161) 
0.439733510035

>  <Torsion>  (161) 
177.672185574

>  <TorsionO>  (161) 
4.31728583372

>  <TorsionR>  (161) 
173.35489974

>  <Version>  (161) 


>  <product>  (161) 
89|Compound_32|Compounds_3D_F|sdf|14|dock6|1

>  <rmsd>  (161) 
-1

$$$$
85|Compound_32|Compounds_3D_F|sdf|14|dock2|1
     RDKit          3D

  9  9  0  0  0  0  0  0  0  0999 V2000
  -15.1577  -22.2146    7.3944 B   0  0  0  0  0  0  0  0  0  0  0  0
  -14.4114  -21.3521    8.4728 C   0  0  0  0  0  0  0  0  0  0  0  0
  -13.7922  -21.8957    9.3624 O   0  0  0  0  0  0  0  0  0  0  0  0
  -14.4590  -20.0063    8.4099 N   0  0  0  0  0  0  0  0  0  0  0  0
  -13.7625  -19.2013    9.4168 C   0  0  0  0  0  0  0  0  0  0  0  0
  -14.1643  -19.5577   10.8492 C   0  0  0  0  0  0  0  0  0  0  0  0
  -12.2396  -19.1172    9.2000 C   0  0  0  0  0  0  0  0  0  0  0  0
  -12.3869  -17.7172    9.5127 O   0  0  0  0  0  0  0  0  0  0  0  0
  -13.7786  -17.6900    9.1243 C   0  0  0  0  0  0  0  0  0  0  0  0
  1  2  1  0
  2  3  2  0
  2  4  1  0
  4  5  1  0
  5  6  1  0
  5  7  1  0
  5  9  1  0
  7  8  1  0
  8  9  1  0
M  END
>  <Gold.Gold.Protein.RotatedWaterAtoms>  (162) 


>  <Gold.Id.Protein>  (162) 


>  <Gold.PLP.Chemscore.CHOScore>  (162) 
0.0000

>  <Gold.PLP.Chemscore.Hbond>  (162) 
1.9120

>  <Gold.PLP.Chemscore.Internal.Correction>  (162) 
0.2523

>  <Gold.PLP.Chemscore.Metal>  (162) 
0.0000

>  <Gold.PLP.Fitness>  (162) 
29.8110

>  <Gold.PLP.PLP>  (162) 
-24.1252

>  <Gold.PLP.ligand.clash>  (162) 
0.0000

>  <Gold.PLP.ligand.torsion>  (162) 
0.1512

>  <Gold.PLP.part.buried>  (162) 
-2.9552

>  <Gold.PLP.part.hbond>  (162) 
-2.0000

>  <Gold.PLP.part.metal>  (162) 
0.0000

>  <Gold.PLP.part.nonpolar>  (162) 
-19.9654

>  <Gold.PLP.part.repulsive>  (162) 
0.2349

>  <Gold.Protein.RotatedAtoms>  (162) 


>  <Gold.Protein.RotatedTorsions>  (162) 


>  <Gold.Protein.RotatedWaterAtoms>  (162) 


>  <Gold.Version>  (162) 
5.3.0

>  <PLP.Chemscore.CHOScore>  (162) 


>  <PLP.Chemscore.Hbond>  (162) 


>  <PLP.Chemscore.Internal.Correction>  (162) 


>  <PLP.Chemscore.Metal>  (162) 


>  <PLP.Fitness>  (162) 


>  <PLP.PLP>  (162) 


>  <PLP.ligand.clash>  (162) 


>  <PLP.ligand.torsion>  (162) 


>  <PLP.part.buried>  (162) 


>  <PLP.part.hbond>  (162) 


>  <PLP.part.metal>  (162) 


>  <PLP.part.nonpolar>  (162) 


>  <PLP.part.repulsive>  (162) 


>  <Version>  (162) 


$$$$
94|664022_40|Aromatic_carboxylic_acids_F|sdf|24|dock1|1
     RDKit          3D

 12 12  0  0  0  0  0  0  0  0999 V2000
   -8.2596  -17.1212   11.4595 C   0  0  0  0  0  0  0  0  0  0  0  0
   -7.6366  -15.8367   11.6688 N   0  0  0  0  0  0  0  0  0  0  0  0
   -8.3409  -14.6553   11.5719 C   0  0  0  0  0  0  0  0  0  0  0  0
   -9.5296  -14.5547   11.2978 O   0  0  0  0  0  0  0  0  0  0  0  0
   -7.5420  -13.4431   11.8503 C   0  0  0  0  0  0  0  0  0  0  0  0
   -8.1627  -12.1983   11.6738 C   0  0  0  0  0  0  0  0  0  0  0  0
   -7.4390  -11.0301   11.9055 C   0  0  0  0  0  0  0  0  0  0  0  0
   -6.1069  -11.0910   12.3103 C   0  0  0  0  0  0  0  0  0  0  0  0
   -5.4897  -12.3324   12.4853 C   0  0  0  0  0  0  0  0  0  0  0  0
   -6.2035  -13.5136   12.2549 C   0  0  0  0  0  0  0  0  0  0  0  0
   -5.3062  -15.1564   12.5638 Br  0  0  0  0  0  0  0  0  0  0  0  0
   -8.1960   -9.5005   11.6887 Cl  0  0  0  0  0  0  0  0  0  0  0  0
  1  2  1  0
  2  3  1  0
  3  4  2  0
  3  5  1  0
  5  6  2  0
  5 10  1  0
  6  7  1  0
  7  8  2  0
  7 12  1  0
  8  9  1  0
  9 10  2  0
 10 11  1  0
M  END
>  <Gold.Gold.Protein.RotatedWaterAtoms>  (163) 


>  <Gold.Id.Protein>  (163) 


>  <Gold.PLP.Chemscore.CHOScore>  (163) 
0.0000

>  <Gold.PLP.Chemscore.Hbond>  (163) 
0.4160

>  <Gold.PLP.Chemscore.Internal.Correction>  (163) 
0.0004

>  <Gold.PLP.Chemscore.Metal>  (163) 
0.0000

>  <Gold.PLP.Fitness>  (163) 
48.9046

>  <Gold.PLP.PLP>  (163) 
-47.6744

>  <Gold.PLP.ligand.clash>  (163) 
0.0000

>  <Gold.PLP.ligand.torsion>  (163) 
0.0091

>  <Gold.PLP.part.buried>  (163) 
-7.3578

>  <Gold.PLP.part.hbond>  (163) 
-0.5127

>  <Gold.PLP.part.metal>  (163) 
0.0000

>  <Gold.PLP.part.nonpolar>  (163) 
-40.3098

>  <Gold.PLP.part.repulsive>  (163) 
0.1684

>  <Gold.Protein.RotatedAtoms>  (163) 


>  <Gold.Protein.RotatedTorsions>  (163) 


>  <Gold.Protein.RotatedWaterAtoms>  (163) 


>  <Gold.Version>  (163) 
5.3.0

>  <PLP.Chemscore.CHOScore>  (163) 


>  <PLP.Chemscore.Hbond>  (163) 


>  <PLP.Chemscore.Internal.Correction>  (163) 


>  <PLP.Chemscore.Metal>  (163) 


>  <PLP.Fitness>  (163) 


>  <PLP.PLP>  (163) 


>  <PLP.ligand.clash>  (163) 


>  <PLP.ligand.torsion>  (163) 


>  <PLP.part.buried>  (163) 


>  <PLP.part.hbond>  (163) 


>  <PLP.part.metal>  (163) 


>  <PLP.part.nonpolar>  (163) 


>  <PLP.part.repulsive>  (163) 


>  <RMSD>  (163) 
0.30972197429

>  <Torsion>  (163) 
172.929186758

>  <TorsionO>  (163) 
24.4968065243

>  <TorsionR>  (163) 
162.574006718

>  <Version>  (163) 


>  <product>  (163) 
85|Compound_32|Compounds_3D_F|sdf|14|dock2|1

>  <rmsd>  (163) 
-1

$$$$
110|565385_49|Aromatic_carboxylic_acids_F|sdf|29|dock1|1
     RDKit          3D

 13 13  0  0  0  0  0  0  0  0999 V2000
  -10.1118  -17.9021   11.6320 C   0  0  0  0  0  0  0  0  0  0  0  0
   -9.7537  -16.5043   11.6546 N   0  0  0  0  0  0  0  0  0  0  0  0
   -8.4330  -16.1187   11.7930 C   0  0  0  0  0  0  0  0  0  0  0  0
   -7.5159  -16.9298   11.9008 O   0  0  0  0  0  0  0  0  0  0  0  0
   -8.1234  -14.6552   11.8105 C   0  0  0  0  0  0  0  0  0  0  0  0
   -9.0636  -13.6551   11.5375 C   0  0  0  0  0  0  0  0  0  0  0  0
   -8.6966  -12.3009   11.5726 C   0  0  0  0  0  0  0  0  0  0  0  0
   -7.3879  -11.9195   11.8809 C   0  0  0  0  0  0  0  0  0  0  0  0
   -6.4486  -12.9235   12.1551 C   0  0  0  0  0  0  0  0  0  0  0  0
   -6.8098  -14.2750   12.1207 C   0  0  0  0  0  0  0  0  0  0  0  0
   -4.6444  -12.5025   12.5849 Br  0  0  0  0  0  0  0  0  0  0  0  0
   -6.9476  -10.6242   11.9372 O   0  0  0  0  0  0  0  0  0  0  0  0
   -7.9020   -9.5910   11.7256 C   0  0  0  0  0  0  0  0  0  0  0  0
  1  2  1  0
  2  3  1  0
  3  4  2  0
  3  5  1  0
  5  6  2  0
  5 10  1  0
  6  7  1  0
  7  8  2  0
  8  9  1  0
  8 12  1  0
  9 10  2  0
  9 11  1  0
 12 13  1  0
M  END
>  <Gold.Gold.Protein.RotatedWaterAtoms>  (164) 


>  <Gold.Id.Protein>  (164) 


>  <Gold.PLP.Chemscore.CHOScore>  (164) 
0.0000

>  <Gold.PLP.Chemscore.Hbond>  (164) 
1.0000

>  <Gold.PLP.Chemscore.Internal.Correction>  (164) 
0.0000

>  <Gold.PLP.Chemscore.Metal>  (164) 
0.0000

>  <Gold.PLP.Fitness>  (164) 
43.9775

>  <Gold.PLP.PLP>  (164) 
-41.0517

>  <Gold.PLP.ligand.clash>  (164) 
0.0000

>  <Gold.PLP.ligand.torsion>  (164) 
0.0371

>  <Gold.PLP.part.buried>  (164) 
-3.7367

>  <Gold.PLP.part.hbond>  (164) 
-1.0000

>  <Gold.PLP.part.metal>  (164) 
0.0000

>  <Gold.PLP.part.nonpolar>  (164) 
-36.7483

>  <Gold.PLP.part.repulsive>  (164) 
0.4054

>  <Gold.Protein.RotatedAtoms>  (164) 


>  <Gold.Protein.RotatedTorsions>  (164) 


>  <Gold.Protein.RotatedWaterAtoms>  (164) 


>  <Gold.Version>  (164) 
5.3.0

>  <PLP.Chemscore.CHOScore>  (164) 


>  <PLP.Chemscore.Hbond>  (164) 


>  <PLP.Chemscore.Internal.Correction>  (164) 


>  <PLP.Chemscore.Metal>  (164) 


>  <PLP.Fitness>  (164) 


>  <PLP.PLP>  (164) 


>  <PLP.ligand.clash>  (164) 


>  <PLP.ligand.torsion>  (164) 


>  <PLP.part.buried>  (164) 


>  <PLP.part.hbond>  (164) 


>  <PLP.part.metal>  (164) 


>  <PLP.part.nonpolar>  (164) 


>  <PLP.part.repulsive>  (164) 


>  <RMSD>  (164) 
0.319376411377

>  <Torsion>  (164) 
169.460450784

>  <TorsionO>  (164) 
9.7963905484

>  <TorsionR>  (164) 
179.256841332

>  <Version>  (164) 


>  <product>  (164) 
85|Compound_32|Compounds_3D_F|sdf|14|dock2|1

>  <rmsd>  (164) 
-1

$$$$
128|137677_56|Aromatic_carboxylic_acids_F|sdf|33|dock1|1
     RDKit          3D

 11 11  0  0  0  0  0  0  0  0999 V2000
   -8.6116  -16.1544   11.8887 C   0  0  0  0  0  0  0  0  0  0  0  0
   -7.9978  -14.8484   11.9215 N   0  0  0  0  0  0  0  0  0  0  0  0
   -8.7778  -13.7008   11.8756 C   0  0  0  0  0  0  0  0  0  0  0  0
  -10.0002  -13.7896   11.8139 O   0  0  0  0  0  0  0  0  0  0  0  0
   -8.0808  -12.3609   11.9017 C   0  0  0  0  0  0  0  0  0  0  0  0
   -8.7916  -11.1851   11.5813 C   0  0  0  0  0  0  0  0  0  0  0  0
   -8.1781   -9.9267   11.5989 C   0  0  0  0  0  0  0  0  0  0  0  0
   -6.8391   -9.8089   11.9369 C   0  0  0  0  0  0  0  0  0  0  0  0
   -6.1124  -10.9502   12.2575 C   0  0  0  0  0  0  0  0  0  0  0  0
   -6.7171  -12.2196   12.2428 C   0  0  0  0  0  0  0  0  0  0  0  0
   -5.5419  -13.6455   12.7121 Br  0  0  0  0  0  0  0  0  0  0  0  0
  1  2  1  0
  2  3  1  0
  3  4  2  0
  3  5  1  0
  5  6  2  0
  5 10  1  0
  6  7  1  0
  7  8  2  0
  8  9  1  0
  9 10  2  0
 10 11  1  0
M  END
>  <Gold.Gold.Protein.RotatedWaterAtoms>  (165) 


>  <Gold.Id.Protein>  (165) 


>  <Gold.PLP.Chemscore.CHOScore>  (165) 
0.0000

>  <Gold.PLP.Chemscore.Hbond>  (165) 
1.0000

>  <Gold.PLP.Chemscore.Internal.Correction>  (165) 
0.0000

>  <Gold.PLP.Chemscore.Metal>  (165) 
0.0000

>  <Gold.PLP.Fitness>  (165) 
45.2899

>  <Gold.PLP.PLP>  (165) 
-42.4444

>  <Gold.PLP.ligand.clash>  (165) 
0.0000

>  <Gold.PLP.ligand.torsion>  (165) 
0.0772

>  <Gold.PLP.part.buried>  (165) 
-6.4690

>  <Gold.PLP.part.hbond>  (165) 
-0.6863

>  <Gold.PLP.part.metal>  (165) 
0.0000

>  <Gold.PLP.part.nonpolar>  (165) 
-34.8280

>  <Gold.PLP.part.repulsive>  (165) 
0.1963

>  <Gold.Protein.RotatedAtoms>  (165) 


>  <Gold.Protein.RotatedTorsions>  (165) 


>  <Gold.Protein.RotatedWaterAtoms>  (165) 


>  <Gold.Version>  (165) 
5.3.0

>  <PLP.Chemscore.CHOScore>  (165) 


>  <PLP.Chemscore.Hbond>  (165) 


>  <PLP.Chemscore.Internal.Correction>  (165) 


>  <PLP.Chemscore.Metal>  (165) 


>  <PLP.Fitness>  (165) 


>  <PLP.PLP>  (165) 


>  <PLP.ligand.clash>  (165) 


>  <PLP.ligand.torsion>  (165) 


>  <PLP.part.buried>  (165) 


>  <PLP.part.hbond>  (165) 


>  <PLP.part.metal>  (165) 


>  <PLP.part.nonpolar>  (165) 


>  <PLP.part.repulsive>  (165) 


>  <RMSD>  (165) 
0.428070490903

>  <Torsion>  (165) 
152.444048788

>  <TorsionO>  (165) 
39.0580871276

>  <TorsionR>  (165) 
168.497864085

>  <Version>  (165) 


>  <product>  (165) 
85|Compound_32|Compounds_3D_F|sdf|14|dock2|1

>  <rmsd>  (165) 
-1

$$$$
974|750794_1404|Aromatic_primary_amines_F|sdf|194|dock3|1
     RDKit          3D

 14 14  0  0  0  0  0  0  0  0999 V2000
  -13.6355  -18.1936    9.4145 C   0  0  0  0  0  0  0  0  0  0  0  0
  -13.2544  -19.4497   10.1732 C   0  0  0  0  0  0  0  0  0  0  0  0
  -11.8731  -19.3506   10.5383 O   0  0  0  0  0  0  0  0  0  0  0  0
  -11.6148  -18.5085   11.5823 C   0  0  0  0  0  0  0  0  0  0  0  0
  -12.3947  -18.2810   12.5004 O   0  0  0  0  0  0  0  0  0  0  0  0
  -10.3031  -17.8985   11.4902 C   0  0  0  0  0  0  0  0  0  0  0  0
   -9.1673  -18.4974   10.9931 C   0  0  0  0  0  0  0  0  0  0  0  0
   -8.1448  -17.6055   11.0758 O   0  0  0  0  0  0  0  0  0  0  0  0
   -8.7110  -16.4917   11.6237 C   0  0  0  0  0  0  0  0  0  0  0  0
   -9.9933  -16.6110   11.8915 N   0  0  0  0  0  0  0  0  0  0  0  0
   -7.9611  -15.3718   11.8549 N   0  0  0  0  0  0  0  0  0  0  0  0
   -8.5046  -14.1249   12.0676 C   0  0  0  0  0  0  0  0  0  0  0  0
   -9.6950  -13.8313   12.1035 O   0  0  0  0  0  0  0  0  0  0  0  0
   -7.4448  -13.0785   12.3021 C   0  0  0  0  0  0  0  0  0  0  0  0
  1  2  1  0
  2  3  1  0
  3  4  1  0
  4  5  2  0
  4  6  1  0
  6  7  2  0
  6 10  1  0
  7  8  1  0
  8  9  1  0
  9 10  2  0
  9 11  1  0
 11 12  1  0
 12 13  2  0
 12 14  1  0
M  END
>  <Gold.Gold.Protein.RotatedWaterAtoms>  (166) 


>  <Gold.Id.Protein>  (166) 


>  <Gold.PLP.Chemscore.CHOScore>  (166) 
0.0000

>  <Gold.PLP.Chemscore.Hbond>  (166) 
2.0000

>  <Gold.PLP.Chemscore.Internal.Correction>  (166) 
0.0053

>  <Gold.PLP.Chemscore.Metal>  (166) 
0.0000

>  <Gold.PLP.Fitness>  (166) 
36.8047

>  <Gold.PLP.PLP>  (166) 
-32.7996

>  <Gold.PLP.ligand.clash>  (166) 
0.0000

>  <Gold.PLP.ligand.torsion>  (166) 
1.0001

>  <Gold.PLP.part.buried>  (166) 
-6.5206

>  <Gold.PLP.part.hbond>  (166) 
-2.9156

>  <Gold.PLP.part.metal>  (166) 
0.0000

>  <Gold.PLP.part.nonpolar>  (166) 
-23.4080

>  <Gold.PLP.part.repulsive>  (166) 
0.3100

>  <Gold.Protein.RotatedAtoms>  (166) 


>  <Gold.Protein.RotatedTorsions>  (166) 


>  <Gold.Protein.RotatedWaterAtoms>  (166) 


>  <Gold.Version>  (166) 
5.3.0

>  <PLP.Chemscore.CHOScore>  (166) 


>  <PLP.Chemscore.Hbond>  (166) 


>  <PLP.Chemscore.Internal.Correction>  (166) 


>  <PLP.Chemscore.Metal>  (166) 


>  <PLP.Fitness>  (166) 


>  <PLP.PLP>  (166) 


>  <PLP.ligand.clash>  (166) 


>  <PLP.ligand.torsion>  (166) 


>  <PLP.part.buried>  (166) 


>  <PLP.part.hbond>  (166) 


>  <PLP.part.metal>  (166) 


>  <PLP.part.nonpolar>  (166) 


>  <PLP.part.repulsive>  (166) 


>  <RMSD>  (166) 
0.499949349045

>  <Torsion>  (166) 
159.973716791

>  <TorsionO>  (166) 
19.1052109979

>  <TorsionR>  (166) 
179.078927789

>  <Version>  (166) 


>  <product>  (166) 
85|Compound_32|Compounds_3D_F|sdf|14|dock2|1

>  <rmsd>  (166) 
-1

$$$$
1884|M3006_1781|Aromatic_primary_amines_F|sdf|361|dock3|1
     RDKit          3D

 31 34  0  0  0  0  0  0  0  0999 V2000
  -14.4210  -19.8971    8.7934 C   0  0  0  0  0  0  0  0  0  0  0  0
  -13.9762  -19.4927   10.1894 C   0  0  0  0  0  0  0  0  0  0  0  0
  -14.1356  -20.6409   11.1817 C   0  0  0  0  0  0  0  0  0  0  0  0
  -13.5197  -20.3070   12.5189 C   0  0  0  0  0  0  0  0  0  0  0  0
  -12.9307  -19.2724   12.7954 O   0  0  0  0  0  0  0  0  0  0  0  0
  -13.7110  -21.3451   13.3845 O   0  0  0  0  0  0  0  0  0  0  0  0
  -12.9425  -21.2698   14.5900 C   0  0  0  0  0  0  0  0  0  0  0  0
  -12.8849  -22.6189   15.2889 C   0  0  0  0  0  0  0  0  0  0  0  0
  -11.6552  -22.4172   16.1494 C   0  0  0  0  0  0  0  0  0  0  0  0
  -11.2420  -23.7410   16.7624 C   0  0  0  0  0  0  0  0  0  0  0  0
  -12.3024  -24.2223   17.5862 O   0  0  0  0  0  0  0  0  0  0  0  0
  -13.7888  -24.3384   16.9603 P   0  0  0  0  0  0  0  0  0  0  0  0
  -14.8775  -24.6795   17.9243 O   0  0  0  0  0  0  0  0  0  0  0  0
  -13.9839  -22.9641   16.1174 O   0  0  0  0  0  0  0  0  0  0  0  0
  -13.5991  -25.4435   15.8075 O   0  0  0  0  0  0  0  0  0  0  0  0
  -10.6922  -21.8161   15.2889 O   0  0  0  0  0  0  0  0  0  0  0  0
  -11.4338  -20.9664   14.3653 C   0  0  0  0  0  0  0  0  0  0  0  0
  -10.9052  -21.2017   13.0342 N   0  0  0  0  0  0  0  0  0  0  0  0
  -10.7814  -22.4114   12.4013 C   0  0  0  0  0  0  0  0  0  0  0  0
  -10.2640  -22.2918   11.1953 N   0  0  0  0  0  0  0  0  0  0  0  0
  -10.0274  -20.9476   11.0424 C   0  0  0  0  0  0  0  0  0  0  0  0
  -10.4203  -20.2487   12.1733 C   0  0  0  0  0  0  0  0  0  0  0  0
  -10.3338  -18.9216   12.3641 N   0  0  0  0  0  0  0  0  0  0  0  0
   -9.8057  -18.2730   11.3024 C   0  0  0  0  0  0  0  0  0  0  0  0
   -9.3808  -18.8370   10.1545 N   0  0  0  0  0  0  0  0  0  0  0  0
   -9.4895  -20.1691   10.0244 C   0  0  0  0  0  0  0  0  0  0  0  0
   -9.0330  -20.6622    8.8349 O   0  0  0  0  0  0  0  0  0  0  0  0
   -9.7222  -16.8901   11.4793 N   0  0  0  0  0  0  0  0  0  0  0  0
   -8.5796  -16.1798   11.7761 C   0  0  0  0  0  0  0  0  0  0  0  0
   -7.4445  -16.6221   11.9131 O   0  0  0  0  0  0  0  0  0  0  0  0
   -8.8524  -14.7024   11.8973 C   0  0  0  0  0  0  0  0  0  0  0  0
  1  2  1  0
  2  3  1  0
  3  4  1  0
  4  5  2  0
  4  6  1  0
  6  7  1  0
  7  8  1  0
  7 17  1  0
  8  9  1  0
  8 14  1  0
  9 10  1  0
  9 16  1  0
 10 11  1  0
 11 12  1  0
 12 13  2  0
 12 14  1  0
 12 15  1  0
 16 17  1  0
 17 18  1  0
 18 19  1  0
 18 22  1  0
 19 20  2  0
 20 21  1  0
 21 22  2  0
 21 26  1  0
 22 23  1  0
 23 24  2  0
 24 25  1  0
 24 28  1  0
 25 26  2  0
 26 27  1  0
 28 29  1  0
 29 30  2  0
 29 31  1  0
M  END
>  <Gold.Gold.Protein.RotatedWaterAtoms>  (167) 


>  <Gold.Id.Protein>  (167) 


>  <Gold.PLP.Chemscore.CHOScore>  (167) 
0.0000

>  <Gold.PLP.Chemscore.Hbond>  (167) 
1.2080

>  <Gold.PLP.Chemscore.Internal.Correction>  (167) 
0.1232

>  <Gold.PLP.Chemscore.Metal>  (167) 
0.0000

>  <Gold.PLP.Fitness>  (167) 
47.7145

>  <Gold.PLP.PLP>  (167) 
-46.0218

>  <Gold.PLP.ligand.clash>  (167) 
0.0000

>  <Gold.PLP.ligand.torsion>  (167) 
1.0272

>  <Gold.PLP.part.buried>  (167) 
-2.2958

>  <Gold.PLP.part.hbond>  (167) 
-4.0214

>  <Gold.PLP.part.metal>  (167) 
0.0000

>  <Gold.PLP.part.nonpolar>  (167) 
-41.4699

>  <Gold.PLP.part.repulsive>  (167) 
0.9524

>  <Gold.Protein.RotatedAtoms>  (167) 


>  <Gold.Protein.RotatedTorsions>  (167) 


>  <Gold.Protein.RotatedWaterAtoms>  (167) 


>  <Gold.Version>  (167) 
5.3.0

>  <PLP.Chemscore.CHOScore>  (167) 


>  <PLP.Chemscore.Hbond>  (167) 


>  <PLP.Chemscore.Internal.Correction>  (167) 


>  <PLP.Chemscore.Metal>  (167) 


>  <PLP.Fitness>  (167) 


>  <PLP.PLP>  (167) 


>  <PLP.ligand.clash>  (167) 


>  <PLP.ligand.torsion>  (167) 


>  <PLP.part.buried>  (167) 


>  <PLP.part.hbond>  (167) 


>  <PLP.part.metal>  (167) 


>  <PLP.part.nonpolar>  (167) 


>  <PLP.part.repulsive>  (167) 


>  <RMSD>  (167) 
0.291955871297

>  <Torsion>  (167) 
171.923704933

>  <TorsionO>  (167) 
6.03609353985

>  <TorsionR>  (167) 
177.959798473

>  <Version>  (167) 


>  <product>  (167) 
85|Compound_32|Compounds_3D_F|sdf|14|dock2|1

>  <rmsd>  (167) 
-1

$$$$
193|32168_281|Aromatic_primary_amines_F|sdf|39|dock6|1
     RDKit          3D

 23 25  0  0  0  0  0  0  0  0999 V2000
   -7.8439  -12.1461   11.8919 C   0  0  0  0  0  0  0  0  0  0  0  0
   -8.5691  -13.4472   11.6781 C   0  0  0  0  0  0  0  0  0  0  0  0
   -9.7886  -13.4981   11.5208 O   0  0  0  0  0  0  0  0  0  0  0  0
   -7.7264  -14.5390   11.7020 N   0  0  0  0  0  0  0  0  0  0  0  0
   -8.1889  -15.8197   11.5323 C   0  0  0  0  0  0  0  0  0  0  0  0
   -9.4747  -16.2039   11.8163 N   0  0  0  0  0  0  0  0  0  0  0  0
   -9.5964  -17.5375   11.5379 C   0  0  0  0  0  0  0  0  0  0  0  0
  -10.6643  -18.4283   11.6415 C   0  0  0  0  0  0  0  0  0  0  0  0
  -10.4051  -19.7586   11.2778 C   0  0  0  0  0  0  0  0  0  0  0  0
   -9.1530  -20.1507   10.7795 C   0  0  0  0  0  0  0  0  0  0  0  0
   -8.1017  -19.2294   10.6839 C   0  0  0  0  0  0  0  0  0  0  0  0
   -8.3349  -17.9032   11.0783 C   0  0  0  0  0  0  0  0  0  0  0  0
   -7.4773  -16.8281   11.0838 N   0  0  0  0  0  0  0  0  0  0  0  0
   -8.8530  -21.7658   10.2429 Cl  0  0  0  0  0  0  0  0  0  0  0  0
  -11.4669  -20.6323   11.3734 O   0  0  0  0  0  0  0  0  0  0  0  0
  -12.5262  -20.4408   10.5053 C   0  0  0  0  0  0  0  0  0  0  0  0
  -13.3188  -19.2846   10.5304 C   0  0  0  0  0  0  0  0  0  0  0  0
  -14.3665  -19.1344    9.6224 C   0  0  0  0  0  0  0  0  0  0  0  0
  -14.6219  -20.1279    8.6796 C   0  0  0  0  0  0  0  0  0  0  0  0
  -13.8238  -21.2756    8.6345 C   0  0  0  0  0  0  0  0  0  0  0  0
  -12.7674  -21.4342    9.5416 C   0  0  0  0  0  0  0  0  0  0  0  0
  -11.7588  -22.8458    9.4996 Cl  0  0  0  0  0  0  0  0  0  0  0  0
  -14.1988  -22.4584    7.4296 Cl  0  0  0  0  0  0  0  0  0  0  0  0
  1  2  1  0
  2  3  2  0
  2  4  1  0
  4  5  1  0
  5  6  1  0
  5 13  2  0
  6  7  1  0
  7  8  2  0
  7 12  1  0
  8  9  1  0
  9 10  2  0
  9 15  1  0
 10 11  1  0
 10 14  1  0
 11 12  2  0
 12 13  1  0
 15 16  1  0
 16 17  2  0
 16 21  1  0
 17 18  1  0
 18 19  2  0
 19 20  1  0
 20 21  2  0
 20 23  1  0
 21 22  1  0
M  END
>  <Gold.Gold.Protein.RotatedWaterAtoms>  (168) 


>  <Gold.Id.Protein>  (168) 


>  <Gold.PLP.Chemscore.CHOScore>  (168) 
0.0000

>  <Gold.PLP.Chemscore.Hbond>  (168) 
1.0000

>  <Gold.PLP.Chemscore.Internal.Correction>  (168) 
0.0086

>  <Gold.PLP.Chemscore.Metal>  (168) 
0.0000

>  <Gold.PLP.Fitness>  (168) 
50.7139

>  <Gold.PLP.PLP>  (168) 
-48.1706

>  <Gold.PLP.ligand.clash>  (168) 
0.0000

>  <Gold.PLP.ligand.torsion>  (168) 
0.2327

>  <Gold.PLP.part.buried>  (168) 
-6.5205

>  <Gold.PLP.part.hbond>  (168) 
-2.0000

>  <Gold.PLP.part.metal>  (168) 
0.0000

>  <Gold.PLP.part.nonpolar>  (168) 
-39.3857

>  <Gold.PLP.part.repulsive>  (168) 
0.3298

>  <Gold.Protein.RotatedAtoms>  (168) 


>  <Gold.Protein.RotatedTorsions>  (168) 


>  <Gold.Protein.RotatedWaterAtoms>  (168) 


>  <Gold.Version>  (168) 
5.3.0

>  <PLP.Chemscore.CHOScore>  (168) 


>  <PLP.Chemscore.Hbond>  (168) 


>  <PLP.Chemscore.Internal.Correction>  (168) 


>  <PLP.Chemscore.Metal>  (168) 


>  <PLP.Fitness>  (168) 


>  <PLP.PLP>  (168) 


>  <PLP.ligand.clash>  (168) 


>  <PLP.ligand.torsion>  (168) 


>  <PLP.part.buried>  (168) 


>  <PLP.part.hbond>  (168) 


>  <PLP.part.metal>  (168) 


>  <PLP.part.nonpolar>  (168) 


>  <PLP.part.repulsive>  (168) 


>  <RMSD>  (168) 
0.439733510035

>  <Torsion>  (168) 
177.672185574

>  <TorsionO>  (168) 
4.31728583372

>  <TorsionR>  (168) 
173.35489974

>  <Version>  (168) 


>  <product>  (168) 
85|Compound_32|Compounds_3D_F|sdf|14|dock2|1

>  <rmsd>  (168) 
-1

$$$$
66|Compound_25|Compounds_3D_F|sdf|11|dock4|1
     RDKit          3D

 10  9  0  0  0  0  0  0  0  0999 V2000
   -5.9362  -14.3771   10.8517 O   0  0  0  0  0  0  0  0  0  0  0  0
   -6.9319  -14.9053   10.1242 C   0  0  0  0  0  0  0  0  0  0  0  0
   -6.6875  -15.4695    9.0833 O   0  0  0  0  0  0  0  0  0  0  0  0
   -8.3564  -14.7948   10.6038 C   0  0  0  0  0  0  0  0  0  0  0  0
   -9.2436  -15.2232    9.5679 O   0  0  0  0  0  0  0  0  0  0  0  0
   -8.5482  -15.6790   11.8378 C   0  0  0  0  0  0  0  0  0  0  0  0
   -8.8357  -17.0520   11.4148 N   0  0  0  0  0  0  0  0  0  0  0  0
   -9.9999  -17.6354   11.7623 C   0  0  0  0  0  0  0  0  0  0  0  0
  -10.8091  -17.0231   12.4258 O   0  0  0  0  0  0  0  0  0  0  0  0
  -10.3075  -19.1059   11.3088 B   0  0  0  0  0  0  0  0  0  0  0  0
  1  2  1  0
  2  3  2  0
  2  4  1  0
  4  5  1  0
  4  6  1  0
  6  7  1  0
  7  8  1  0
  8  9  2  0
  8 10  1  0
M  END
>  <Gold.Gold.Protein.RotatedWaterAtoms>  (169) 


>  <Gold.Id.Protein>  (169) 


>  <Gold.PLP.Chemscore.CHOScore>  (169) 
0.0000

>  <Gold.PLP.Chemscore.Hbond>  (169) 
3.9585

>  <Gold.PLP.Chemscore.Internal.Correction>  (169) 
0.0006

>  <Gold.PLP.Chemscore.Metal>  (169) 
0.0000

>  <Gold.PLP.Fitness>  (169) 
31.2291

>  <Gold.PLP.PLP>  (169) 
-20.2376

>  <Gold.PLP.ligand.clash>  (169) 
0.0000

>  <Gold.PLP.ligand.torsion>  (169) 
0.4422

>  <Gold.PLP.part.buried>  (169) 
-3.9481

>  <Gold.PLP.part.hbond>  (169) 
-6.0000

>  <Gold.PLP.part.metal>  (169) 
0.0000

>  <Gold.PLP.part.nonpolar>  (169) 
-11.1703

>  <Gold.PLP.part.repulsive>  (169) 
0.2643

>  <Gold.Protein.RotatedAtoms>  (169) 


>  <Gold.Protein.RotatedTorsions>  (169) 


>  <Gold.Protein.RotatedWaterAtoms>  (169) 


>  <Gold.Version>  (169) 
5.3.0

>  <PLP.Chemscore.CHOScore>  (169) 


>  <PLP.Chemscore.Hbond>  (169) 


>  <PLP.Chemscore.Internal.Correction>  (169) 


>  <PLP.Chemscore.Metal>  (169) 


>  <PLP.Fitness>  (169) 


>  <PLP.PLP>  (169) 


>  <PLP.ligand.clash>  (169) 


>  <PLP.ligand.torsion>  (169) 


>  <PLP.part.buried>  (169) 


>  <PLP.part.hbond>  (169) 


>  <PLP.part.metal>  (169) 


>  <PLP.part.nonpolar>  (169) 


>  <PLP.part.repulsive>  (169) 


>  <Version>  (169) 


$$$$
94|664022_40|Aromatic_carboxylic_acids_F|sdf|24|dock1|1
     RDKit          3D

 12 12  0  0  0  0  0  0  0  0999 V2000
   -8.2596  -17.1212   11.4595 C   0  0  0  0  0  0  0  0  0  0  0  0
   -7.6366  -15.8367   11.6688 N   0  0  0  0  0  0  0  0  0  0  0  0
   -8.3409  -14.6553   11.5719 C   0  0  0  0  0  0  0  0  0  0  0  0
   -9.5296  -14.5547   11.2978 O   0  0  0  0  0  0  0  0  0  0  0  0
   -7.5420  -13.4431   11.8503 C   0  0  0  0  0  0  0  0  0  0  0  0
   -8.1627  -12.1983   11.6738 C   0  0  0  0  0  0  0  0  0  0  0  0
   -7.4390  -11.0301   11.9055 C   0  0  0  0  0  0  0  0  0  0  0  0
   -6.1069  -11.0910   12.3103 C   0  0  0  0  0  0  0  0  0  0  0  0
   -5.4897  -12.3324   12.4853 C   0  0  0  0  0  0  0  0  0  0  0  0
   -6.2035  -13.5136   12.2549 C   0  0  0  0  0  0  0  0  0  0  0  0
   -5.3062  -15.1564   12.5638 Br  0  0  0  0  0  0  0  0  0  0  0  0
   -8.1960   -9.5005   11.6887 Cl  0  0  0  0  0  0  0  0  0  0  0  0
  1  2  1  0
  2  3  1  0
  3  4  2  0
  3  5  1  0
  5  6  2  0
  5 10  1  0
  6  7  1  0
  7  8  2  0
  7 12  1  0
  8  9  1  0
  9 10  2  0
 10 11  1  0
M  END
>  <Gold.Gold.Protein.RotatedWaterAtoms>  (170) 


>  <Gold.Id.Protein>  (170) 


>  <Gold.PLP.Chemscore.CHOScore>  (170) 
0.0000

>  <Gold.PLP.Chemscore.Hbond>  (170) 
0.4160

>  <Gold.PLP.Chemscore.Internal.Correction>  (170) 
0.0004

>  <Gold.PLP.Chemscore.Metal>  (170) 
0.0000

>  <Gold.PLP.Fitness>  (170) 
48.9046

>  <Gold.PLP.PLP>  (170) 
-47.6744

>  <Gold.PLP.ligand.clash>  (170) 
0.0000

>  <Gold.PLP.ligand.torsion>  (170) 
0.0091

>  <Gold.PLP.part.buried>  (170) 
-7.3578

>  <Gold.PLP.part.hbond>  (170) 
-0.5127

>  <Gold.PLP.part.metal>  (170) 
0.0000

>  <Gold.PLP.part.nonpolar>  (170) 
-40.3098

>  <Gold.PLP.part.repulsive>  (170) 
0.1684

>  <Gold.Protein.RotatedAtoms>  (170) 


>  <Gold.Protein.RotatedTorsions>  (170) 


>  <Gold.Protein.RotatedWaterAtoms>  (170) 


>  <Gold.Version>  (170) 
5.3.0

>  <PLP.Chemscore.CHOScore>  (170) 


>  <PLP.Chemscore.Hbond>  (170) 


>  <PLP.Chemscore.Internal.Correction>  (170) 


>  <PLP.Chemscore.Metal>  (170) 


>  <PLP.Fitness>  (170) 


>  <PLP.PLP>  (170) 


>  <PLP.ligand.clash>  (170) 


>  <PLP.ligand.torsion>  (170) 


>  <PLP.part.buried>  (170) 


>  <PLP.part.hbond>  (170) 


>  <PLP.part.metal>  (170) 


>  <PLP.part.nonpolar>  (170) 


>  <PLP.part.repulsive>  (170) 


>  <RMSD>  (170) 
0.30972197429

>  <Torsion>  (170) 
172.929186758

>  <TorsionO>  (170) 
24.4968065243

>  <TorsionR>  (170) 
162.574006718

>  <Version>  (170) 


>  <product>  (170) 
66|Compound_25|Compounds_3D_F|sdf|11|dock4|1

>  <rmsd>  (170) 
-1

$$$$
110|565385_49|Aromatic_carboxylic_acids_F|sdf|29|dock1|1
     RDKit          3D

 13 13  0  0  0  0  0  0  0  0999 V2000
  -10.1118  -17.9021   11.6320 C   0  0  0  0  0  0  0  0  0  0  0  0
   -9.7537  -16.5043   11.6546 N   0  0  0  0  0  0  0  0  0  0  0  0
   -8.4330  -16.1187   11.7930 C   0  0  0  0  0  0  0  0  0  0  0  0
   -7.5159  -16.9298   11.9008 O   0  0  0  0  0  0  0  0  0  0  0  0
   -8.1234  -14.6552   11.8105 C   0  0  0  0  0  0  0  0  0  0  0  0
   -9.0636  -13.6551   11.5375 C   0  0  0  0  0  0  0  0  0  0  0  0
   -8.6966  -12.3009   11.5726 C   0  0  0  0  0  0  0  0  0  0  0  0
   -7.3879  -11.9195   11.8809 C   0  0  0  0  0  0  0  0  0  0  0  0
   -6.4486  -12.9235   12.1551 C   0  0  0  0  0  0  0  0  0  0  0  0
   -6.8098  -14.2750   12.1207 C   0  0  0  0  0  0  0  0  0  0  0  0
   -4.6444  -12.5025   12.5849 Br  0  0  0  0  0  0  0  0  0  0  0  0
   -6.9476  -10.6242   11.9372 O   0  0  0  0  0  0  0  0  0  0  0  0
   -7.9020   -9.5910   11.7256 C   0  0  0  0  0  0  0  0  0  0  0  0
  1  2  1  0
  2  3  1  0
  3  4  2  0
  3  5  1  0
  5  6  2  0
  5 10  1  0
  6  7  1  0
  7  8  2  0
  8  9  1  0
  8 12  1  0
  9 10  2  0
  9 11  1  0
 12 13  1  0
M  END
>  <Gold.Gold.Protein.RotatedWaterAtoms>  (171) 


>  <Gold.Id.Protein>  (171) 


>  <Gold.PLP.Chemscore.CHOScore>  (171) 
0.0000

>  <Gold.PLP.Chemscore.Hbond>  (171) 
1.0000

>  <Gold.PLP.Chemscore.Internal.Correction>  (171) 
0.0000

>  <Gold.PLP.Chemscore.Metal>  (171) 
0.0000

>  <Gold.PLP.Fitness>  (171) 
43.9775

>  <Gold.PLP.PLP>  (171) 
-41.0517

>  <Gold.PLP.ligand.clash>  (171) 
0.0000

>  <Gold.PLP.ligand.torsion>  (171) 
0.0371

>  <Gold.PLP.part.buried>  (171) 
-3.7367

>  <Gold.PLP.part.hbond>  (171) 
-1.0000

>  <Gold.PLP.part.metal>  (171) 
0.0000

>  <Gold.PLP.part.nonpolar>  (171) 
-36.7483

>  <Gold.PLP.part.repulsive>  (171) 
0.4054

>  <Gold.Protein.RotatedAtoms>  (171) 


>  <Gold.Protein.RotatedTorsions>  (171) 


>  <Gold.Protein.RotatedWaterAtoms>  (171) 


>  <Gold.Version>  (171) 
5.3.0

>  <PLP.Chemscore.CHOScore>  (171) 


>  <PLP.Chemscore.Hbond>  (171) 


>  <PLP.Chemscore.Internal.Correction>  (171) 


>  <PLP.Chemscore.Metal>  (171) 


>  <PLP.Fitness>  (171) 


>  <PLP.PLP>  (171) 


>  <PLP.ligand.clash>  (171) 


>  <PLP.ligand.torsion>  (171) 


>  <PLP.part.buried>  (171) 


>  <PLP.part.hbond>  (171) 


>  <PLP.part.metal>  (171) 


>  <PLP.part.nonpolar>  (171) 


>  <PLP.part.repulsive>  (171) 


>  <RMSD>  (171) 
0.319376411377

>  <Torsion>  (171) 
169.460450784

>  <TorsionO>  (171) 
9.7963905484

>  <TorsionR>  (171) 
179.256841332

>  <Version>  (171) 


>  <product>  (171) 
66|Compound_25|Compounds_3D_F|sdf|11|dock4|1

>  <rmsd>  (171) 
-1

$$$$
128|137677_56|Aromatic_carboxylic_acids_F|sdf|33|dock1|1
     RDKit          3D

 11 11  0  0  0  0  0  0  0  0999 V2000
   -8.6116  -16.1544   11.8887 C   0  0  0  0  0  0  0  0  0  0  0  0
   -7.9978  -14.8484   11.9215 N   0  0  0  0  0  0  0  0  0  0  0  0
   -8.7778  -13.7008   11.8756 C   0  0  0  0  0  0  0  0  0  0  0  0
  -10.0002  -13.7896   11.8139 O   0  0  0  0  0  0  0  0  0  0  0  0
   -8.0808  -12.3609   11.9017 C   0  0  0  0  0  0  0  0  0  0  0  0
   -8.7916  -11.1851   11.5813 C   0  0  0  0  0  0  0  0  0  0  0  0
   -8.1781   -9.9267   11.5989 C   0  0  0  0  0  0  0  0  0  0  0  0
   -6.8391   -9.8089   11.9369 C   0  0  0  0  0  0  0  0  0  0  0  0
   -6.1124  -10.9502   12.2575 C   0  0  0  0  0  0  0  0  0  0  0  0
   -6.7171  -12.2196   12.2428 C   0  0  0  0  0  0  0  0  0  0  0  0
   -5.5419  -13.6455   12.7121 Br  0  0  0  0  0  0  0  0  0  0  0  0
  1  2  1  0
  2  3  1  0
  3  4  2  0
  3  5  1  0
  5  6  2  0
  5 10  1  0
  6  7  1  0
  7  8  2  0
  8  9  1  0
  9 10  2  0
 10 11  1  0
M  END
>  <Gold.Gold.Protein.RotatedWaterAtoms>  (172) 


>  <Gold.Id.Protein>  (172) 


>  <Gold.PLP.Chemscore.CHOScore>  (172) 
0.0000

>  <Gold.PLP.Chemscore.Hbond>  (172) 
1.0000

>  <Gold.PLP.Chemscore.Internal.Correction>  (172) 
0.0000

>  <Gold.PLP.Chemscore.Metal>  (172) 
0.0000

>  <Gold.PLP.Fitness>  (172) 
45.2899

>  <Gold.PLP.PLP>  (172) 
-42.4444

>  <Gold.PLP.ligand.clash>  (172) 
0.0000

>  <Gold.PLP.ligand.torsion>  (172) 
0.0772

>  <Gold.PLP.part.buried>  (172) 
-6.4690

>  <Gold.PLP.part.hbond>  (172) 
-0.6863

>  <Gold.PLP.part.metal>  (172) 
0.0000

>  <Gold.PLP.part.nonpolar>  (172) 
-34.8280

>  <Gold.PLP.part.repulsive>  (172) 
0.1963

>  <Gold.Protein.RotatedAtoms>  (172) 


>  <Gold.Protein.RotatedTorsions>  (172) 


>  <Gold.Protein.RotatedWaterAtoms>  (172) 


>  <Gold.Version>  (172) 
5.3.0

>  <PLP.Chemscore.CHOScore>  (172) 


>  <PLP.Chemscore.Hbond>  (172) 


>  <PLP.Chemscore.Internal.Correction>  (172) 


>  <PLP.Chemscore.Metal>  (172) 


>  <PLP.Fitness>  (172) 


>  <PLP.PLP>  (172) 


>  <PLP.ligand.clash>  (172) 


>  <PLP.ligand.torsion>  (172) 


>  <PLP.part.buried>  (172) 


>  <PLP.part.hbond>  (172) 


>  <PLP.part.metal>  (172) 


>  <PLP.part.nonpolar>  (172) 


>  <PLP.part.repulsive>  (172) 


>  <RMSD>  (172) 
0.428070490903

>  <Torsion>  (172) 
152.444048788

>  <TorsionO>  (172) 
39.0580871276

>  <TorsionR>  (172) 
168.497864085

>  <Version>  (172) 


>  <product>  (172) 
66|Compound_25|Compounds_3D_F|sdf|11|dock4|1

>  <rmsd>  (172) 
-1

$$$$
974|750794_1404|Aromatic_primary_amines_F|sdf|194|dock3|1
     RDKit          3D

 14 14  0  0  0  0  0  0  0  0999 V2000
  -13.6355  -18.1936    9.4145 C   0  0  0  0  0  0  0  0  0  0  0  0
  -13.2544  -19.4497   10.1732 C   0  0  0  0  0  0  0  0  0  0  0  0
  -11.8731  -19.3506   10.5383 O   0  0  0  0  0  0  0  0  0  0  0  0
  -11.6148  -18.5085   11.5823 C   0  0  0  0  0  0  0  0  0  0  0  0
  -12.3947  -18.2810   12.5004 O   0  0  0  0  0  0  0  0  0  0  0  0
  -10.3031  -17.8985   11.4902 C   0  0  0  0  0  0  0  0  0  0  0  0
   -9.1673  -18.4974   10.9931 C   0  0  0  0  0  0  0  0  0  0  0  0
   -8.1448  -17.6055   11.0758 O   0  0  0  0  0  0  0  0  0  0  0  0
   -8.7110  -16.4917   11.6237 C   0  0  0  0  0  0  0  0  0  0  0  0
   -9.9933  -16.6110   11.8915 N   0  0  0  0  0  0  0  0  0  0  0  0
   -7.9611  -15.3718   11.8549 N   0  0  0  0  0  0  0  0  0  0  0  0
   -8.5046  -14.1249   12.0676 C   0  0  0  0  0  0  0  0  0  0  0  0
   -9.6950  -13.8313   12.1035 O   0  0  0  0  0  0  0  0  0  0  0  0
   -7.4448  -13.0785   12.3021 C   0  0  0  0  0  0  0  0  0  0  0  0
  1  2  1  0
  2  3  1  0
  3  4  1  0
  4  5  2  0
  4  6  1  0
  6  7  2  0
  6 10  1  0
  7  8  1  0
  8  9  1  0
  9 10  2  0
  9 11  1  0
 11 12  1  0
 12 13  2  0
 12 14  1  0
M  END
>  <Gold.Gold.Protein.RotatedWaterAtoms>  (173) 


>  <Gold.Id.Protein>  (173) 


>  <Gold.PLP.Chemscore.CHOScore>  (173) 
0.0000

>  <Gold.PLP.Chemscore.Hbond>  (173) 
2.0000

>  <Gold.PLP.Chemscore.Internal.Correction>  (173) 
0.0053

>  <Gold.PLP.Chemscore.Metal>  (173) 
0.0000

>  <Gold.PLP.Fitness>  (173) 
36.8047

>  <Gold.PLP.PLP>  (173) 
-32.7996

>  <Gold.PLP.ligand.clash>  (173) 
0.0000

>  <Gold.PLP.ligand.torsion>  (173) 
1.0001

>  <Gold.PLP.part.buried>  (173) 
-6.5206

>  <Gold.PLP.part.hbond>  (173) 
-2.9156

>  <Gold.PLP.part.metal>  (173) 
0.0000

>  <Gold.PLP.part.nonpolar>  (173) 
-23.4080

>  <Gold.PLP.part.repulsive>  (173) 
0.3100

>  <Gold.Protein.RotatedAtoms>  (173) 


>  <Gold.Protein.RotatedTorsions>  (173) 


>  <Gold.Protein.RotatedWaterAtoms>  (173) 


>  <Gold.Version>  (173) 
5.3.0

>  <PLP.Chemscore.CHOScore>  (173) 


>  <PLP.Chemscore.Hbond>  (173) 


>  <PLP.Chemscore.Internal.Correction>  (173) 


>  <PLP.Chemscore.Metal>  (173) 


>  <PLP.Fitness>  (173) 


>  <PLP.PLP>  (173) 


>  <PLP.ligand.clash>  (173) 


>  <PLP.ligand.torsion>  (173) 


>  <PLP.part.buried>  (173) 


>  <PLP.part.hbond>  (173) 


>  <PLP.part.metal>  (173) 


>  <PLP.part.nonpolar>  (173) 


>  <PLP.part.repulsive>  (173) 


>  <RMSD>  (173) 
0.499949349045

>  <Torsion>  (173) 
159.973716791

>  <TorsionO>  (173) 
19.1052109979

>  <TorsionR>  (173) 
179.078927789

>  <Version>  (173) 


>  <product>  (173) 
66|Compound_25|Compounds_3D_F|sdf|11|dock4|1

>  <rmsd>  (173) 
-1

$$$$
1884|M3006_1781|Aromatic_primary_amines_F|sdf|361|dock3|1
     RDKit          3D

 31 34  0  0  0  0  0  0  0  0999 V2000
  -14.4210  -19.8971    8.7934 C   0  0  0  0  0  0  0  0  0  0  0  0
  -13.9762  -19.4927   10.1894 C   0  0  0  0  0  0  0  0  0  0  0  0
  -14.1356  -20.6409   11.1817 C   0  0  0  0  0  0  0  0  0  0  0  0
  -13.5197  -20.3070   12.5189 C   0  0  0  0  0  0  0  0  0  0  0  0
  -12.9307  -19.2724   12.7954 O   0  0  0  0  0  0  0  0  0  0  0  0
  -13.7110  -21.3451   13.3845 O   0  0  0  0  0  0  0  0  0  0  0  0
  -12.9425  -21.2698   14.5900 C   0  0  0  0  0  0  0  0  0  0  0  0
  -12.8849  -22.6189   15.2889 C   0  0  0  0  0  0  0  0  0  0  0  0
  -11.6552  -22.4172   16.1494 C   0  0  0  0  0  0  0  0  0  0  0  0
  -11.2420  -23.7410   16.7624 C   0  0  0  0  0  0  0  0  0  0  0  0
  -12.3024  -24.2223   17.5862 O   0  0  0  0  0  0  0  0  0  0  0  0
  -13.7888  -24.3384   16.9603 P   0  0  0  0  0  0  0  0  0  0  0  0
  -14.8775  -24.6795   17.9243 O   0  0  0  0  0  0  0  0  0  0  0  0
  -13.9839  -22.9641   16.1174 O   0  0  0  0  0  0  0  0  0  0  0  0
  -13.5991  -25.4435   15.8075 O   0  0  0  0  0  0  0  0  0  0  0  0
  -10.6922  -21.8161   15.2889 O   0  0  0  0  0  0  0  0  0  0  0  0
  -11.4338  -20.9664   14.3653 C   0  0  0  0  0  0  0  0  0  0  0  0
  -10.9052  -21.2017   13.0342 N   0  0  0  0  0  0  0  0  0  0  0  0
  -10.7814  -22.4114   12.4013 C   0  0  0  0  0  0  0  0  0  0  0  0
  -10.2640  -22.2918   11.1953 N   0  0  0  0  0  0  0  0  0  0  0  0
  -10.0274  -20.9476   11.0424 C   0  0  0  0  0  0  0  0  0  0  0  0
  -10.4203  -20.2487   12.1733 C   0  0  0  0  0  0  0  0  0  0  0  0
  -10.3338  -18.9216   12.3641 N   0  0  0  0  0  0  0  0  0  0  0  0
   -9.8057  -18.2730   11.3024 C   0  0  0  0  0  0  0  0  0  0  0  0
   -9.3808  -18.8370   10.1545 N   0  0  0  0  0  0  0  0  0  0  0  0
   -9.4895  -20.1691   10.0244 C   0  0  0  0  0  0  0  0  0  0  0  0
   -9.0330  -20.6622    8.8349 O   0  0  0  0  0  0  0  0  0  0  0  0
   -9.7222  -16.8901   11.4793 N   0  0  0  0  0  0  0  0  0  0  0  0
   -8.5796  -16.1798   11.7761 C   0  0  0  0  0  0  0  0  0  0  0  0
   -7.4445  -16.6221   11.9131 O   0  0  0  0  0  0  0  0  0  0  0  0
   -8.8524  -14.7024   11.8973 C   0  0  0  0  0  0  0  0  0  0  0  0
  1  2  1  0
  2  3  1  0
  3  4  1  0
  4  5  2  0
  4  6  1  0
  6  7  1  0
  7  8  1  0
  7 17  1  0
  8  9  1  0
  8 14  1  0
  9 10  1  0
  9 16  1  0
 10 11  1  0
 11 12  1  0
 12 13  2  0
 12 14  1  0
 12 15  1  0
 16 17  1  0
 17 18  1  0
 18 19  1  0
 18 22  1  0
 19 20  2  0
 20 21  1  0
 21 22  2  0
 21 26  1  0
 22 23  1  0
 23 24  2  0
 24 25  1  0
 24 28  1  0
 25 26  2  0
 26 27  1  0
 28 29  1  0
 29 30  2  0
 29 31  1  0
M  END
>  <Gold.Gold.Protein.RotatedWaterAtoms>  (174) 


>  <Gold.Id.Protein>  (174) 


>  <Gold.PLP.Chemscore.CHOScore>  (174) 
0.0000

>  <Gold.PLP.Chemscore.Hbond>  (174) 
1.2080

>  <Gold.PLP.Chemscore.Internal.Correction>  (174) 
0.1232

>  <Gold.PLP.Chemscore.Metal>  (174) 
0.0000

>  <Gold.PLP.Fitness>  (174) 
47.7145

>  <Gold.PLP.PLP>  (174) 
-46.0218

>  <Gold.PLP.ligand.clash>  (174) 
0.0000

>  <Gold.PLP.ligand.torsion>  (174) 
1.0272

>  <Gold.PLP.part.buried>  (174) 
-2.2958

>  <Gold.PLP.part.hbond>  (174) 
-4.0214

>  <Gold.PLP.part.metal>  (174) 
0.0000

>  <Gold.PLP.part.nonpolar>  (174) 
-41.4699

>  <Gold.PLP.part.repulsive>  (174) 
0.9524

>  <Gold.Protein.RotatedAtoms>  (174) 


>  <Gold.Protein.RotatedTorsions>  (174) 


>  <Gold.Protein.RotatedWaterAtoms>  (174) 


>  <Gold.Version>  (174) 
5.3.0

>  <PLP.Chemscore.CHOScore>  (174) 


>  <PLP.Chemscore.Hbond>  (174) 


>  <PLP.Chemscore.Internal.Correction>  (174) 


>  <PLP.Chemscore.Metal>  (174) 


>  <PLP.Fitness>  (174) 


>  <PLP.PLP>  (174) 


>  <PLP.ligand.clash>  (174) 


>  <PLP.ligand.torsion>  (174) 


>  <PLP.part.buried>  (174) 


>  <PLP.part.hbond>  (174) 


>  <PLP.part.metal>  (174) 


>  <PLP.part.nonpolar>  (174) 


>  <PLP.part.repulsive>  (174) 


>  <RMSD>  (174) 
0.291955871297

>  <Torsion>  (174) 
171.923704933

>  <TorsionO>  (174) 
6.03609353985

>  <TorsionR>  (174) 
177.959798473

>  <Version>  (174) 


>  <product>  (174) 
66|Compound_25|Compounds_3D_F|sdf|11|dock4|1

>  <rmsd>  (174) 
-1

$$$$
193|32168_281|Aromatic_primary_amines_F|sdf|39|dock6|1
     RDKit          3D

 23 25  0  0  0  0  0  0  0  0999 V2000
   -7.8439  -12.1461   11.8919 C   0  0  0  0  0  0  0  0  0  0  0  0
   -8.5691  -13.4472   11.6781 C   0  0  0  0  0  0  0  0  0  0  0  0
   -9.7886  -13.4981   11.5208 O   0  0  0  0  0  0  0  0  0  0  0  0
   -7.7264  -14.5390   11.7020 N   0  0  0  0  0  0  0  0  0  0  0  0
   -8.1889  -15.8197   11.5323 C   0  0  0  0  0  0  0  0  0  0  0  0
   -9.4747  -16.2039   11.8163 N   0  0  0  0  0  0  0  0  0  0  0  0
   -9.5964  -17.5375   11.5379 C   0  0  0  0  0  0  0  0  0  0  0  0
  -10.6643  -18.4283   11.6415 C   0  0  0  0  0  0  0  0  0  0  0  0
  -10.4051  -19.7586   11.2778 C   0  0  0  0  0  0  0  0  0  0  0  0
   -9.1530  -20.1507   10.7795 C   0  0  0  0  0  0  0  0  0  0  0  0
   -8.1017  -19.2294   10.6839 C   0  0  0  0  0  0  0  0  0  0  0  0
   -8.3349  -17.9032   11.0783 C   0  0  0  0  0  0  0  0  0  0  0  0
   -7.4773  -16.8281   11.0838 N   0  0  0  0  0  0  0  0  0  0  0  0
   -8.8530  -21.7658   10.2429 Cl  0  0  0  0  0  0  0  0  0  0  0  0
  -11.4669  -20.6323   11.3734 O   0  0  0  0  0  0  0  0  0  0  0  0
  -12.5262  -20.4408   10.5053 C   0  0  0  0  0  0  0  0  0  0  0  0
  -13.3188  -19.2846   10.5304 C   0  0  0  0  0  0  0  0  0  0  0  0
  -14.3665  -19.1344    9.6224 C   0  0  0  0  0  0  0  0  0  0  0  0
  -14.6219  -20.1279    8.6796 C   0  0  0  0  0  0  0  0  0  0  0  0
  -13.8238  -21.2756    8.6345 C   0  0  0  0  0  0  0  0  0  0  0  0
  -12.7674  -21.4342    9.5416 C   0  0  0  0  0  0  0  0  0  0  0  0
  -11.7588  -22.8458    9.4996 Cl  0  0  0  0  0  0  0  0  0  0  0  0
  -14.1988  -22.4584    7.4296 Cl  0  0  0  0  0  0  0  0  0  0  0  0
  1  2  1  0
  2  3  2  0
  2  4  1  0
  4  5  1  0
  5  6  1  0
  5 13  2  0
  6  7  1  0
  7  8  2  0
  7 12  1  0
  8  9  1  0
  9 10  2  0
  9 15  1  0
 10 11  1  0
 10 14  1  0
 11 12  2  0
 12 13  1  0
 15 16  1  0
 16 17  2  0
 16 21  1  0
 17 18  1  0
 18 19  2  0
 19 20  1  0
 20 21  2  0
 20 23  1  0
 21 22  1  0
M  END
>  <Gold.Gold.Protein.RotatedWaterAtoms>  (175) 


>  <Gold.Id.Protein>  (175) 


>  <Gold.PLP.Chemscore.CHOScore>  (175) 
0.0000

>  <Gold.PLP.Chemscore.Hbond>  (175) 
1.0000

>  <Gold.PLP.Chemscore.Internal.Correction>  (175) 
0.0086

>  <Gold.PLP.Chemscore.Metal>  (175) 
0.0000

>  <Gold.PLP.Fitness>  (175) 
50.7139

>  <Gold.PLP.PLP>  (175) 
-48.1706

>  <Gold.PLP.ligand.clash>  (175) 
0.0000

>  <Gold.PLP.ligand.torsion>  (175) 
0.2327

>  <Gold.PLP.part.buried>  (175) 
-6.5205

>  <Gold.PLP.part.hbond>  (175) 
-2.0000

>  <Gold.PLP.part.metal>  (175) 
0.0000

>  <Gold.PLP.part.nonpolar>  (175) 
-39.3857

>  <Gold.PLP.part.repulsive>  (175) 
0.3298

>  <Gold.Protein.RotatedAtoms>  (175) 


>  <Gold.Protein.RotatedTorsions>  (175) 


>  <Gold.Protein.RotatedWaterAtoms>  (175) 


>  <Gold.Version>  (175) 
5.3.0

>  <PLP.Chemscore.CHOScore>  (175) 


>  <PLP.Chemscore.Hbond>  (175) 


>  <PLP.Chemscore.Internal.Correction>  (175) 


>  <PLP.Chemscore.Metal>  (175) 


>  <PLP.Fitness>  (175) 


>  <PLP.PLP>  (175) 


>  <PLP.ligand.clash>  (175) 


>  <PLP.ligand.torsion>  (175) 


>  <PLP.part.buried>  (175) 


>  <PLP.part.hbond>  (175) 


>  <PLP.part.metal>  (175) 


>  <PLP.part.nonpolar>  (175) 


>  <PLP.part.repulsive>  (175) 


>  <RMSD>  (175) 
0.439733510035

>  <Torsion>  (175) 
177.672185574

>  <TorsionO>  (175) 
4.31728583372

>  <TorsionR>  (175) 
173.35489974

>  <Version>  (175) 


>  <product>  (175) 
66|Compound_25|Compounds_3D_F|sdf|11|dock4|1

>  <rmsd>  (175) 
-1

$$$$
0|Compound_1|Compounds_3D_F|sdf|1|dock1|1
     RDKit          3D

  5  4  0  0  0  0  0  0  0  0999 V2000
   -5.5350  -12.0623   12.4971 B   0  0  0  0  0  0  0  0  0  0  0  0
   -5.7585  -13.6125   12.3946 C   0  0  0  0  0  0  0  0  0  0  0  0
   -6.8764  -14.0722   12.4911 O   0  0  0  0  0  0  0  0  0  0  0  0
   -4.7070  -14.4333   12.1995 N   0  0  0  0  0  0  0  0  0  0  0  0
   -4.9158  -15.8805   12.1042 C   0  0  0  0  0  0  0  0  0  0  0  0
  1  2  1  0
  2  3  2  0
  2  4  1  0
  4  5  1  0
M  END
>  <Gold.Gold.Protein.RotatedWaterAtoms>  (176) 


>  <Gold.Id.Protein>  (176) 


>  <Gold.PLP.Chemscore.CHOScore>  (176) 
0.0000

>  <Gold.PLP.Chemscore.Hbond>  (176) 
1.0000

>  <Gold.PLP.Chemscore.Internal.Correction>  (176) 
0.0000

>  <Gold.PLP.Chemscore.Metal>  (176) 
0.0000

>  <Gold.PLP.Fitness>  (176) 
20.8504

>  <Gold.PLP.PLP>  (176) 
-17.8504

>  <Gold.PLP.ligand.clash>  (176) 
0.0000

>  <Gold.PLP.ligand.torsion>  (176) 
0.0000

>  <Gold.PLP.part.buried>  (176) 
-3.9280

>  <Gold.PLP.part.hbond>  (176) 
-2.0000

>  <Gold.PLP.part.metal>  (176) 
0.0000

>  <Gold.PLP.part.nonpolar>  (176) 
-11.8544

>  <Gold.PLP.part.repulsive>  (176) 
0.2651

>  <Gold.Protein.RotatedAtoms>  (176) 


>  <Gold.Protein.RotatedTorsions>  (176) 


>  <Gold.Protein.RotatedWaterAtoms>  (176) 


>  <Gold.Version>  (176) 
5.3.0

>  <PLP.Chemscore.CHOScore>  (176) 


>  <PLP.Chemscore.Hbond>  (176) 


>  <PLP.Chemscore.Internal.Correction>  (176) 


>  <PLP.Chemscore.Metal>  (176) 


>  <PLP.Fitness>  (176) 


>  <PLP.PLP>  (176) 


>  <PLP.ligand.clash>  (176) 


>  <PLP.ligand.torsion>  (176) 


>  <PLP.part.buried>  (176) 


>  <PLP.part.hbond>  (176) 


>  <PLP.part.metal>  (176) 


>  <PLP.part.nonpolar>  (176) 


>  <PLP.part.repulsive>  (176) 


>  <Version>  (176) 


$$$$
94|664022_40|Aromatic_carboxylic_acids_F|sdf|24|dock1|1
     RDKit          3D

 12 12  0  0  0  0  0  0  0  0999 V2000
   -8.2596  -17.1212   11.4595 C   0  0  0  0  0  0  0  0  0  0  0  0
   -7.6366  -15.8367   11.6688 N   0  0  0  0  0  0  0  0  0  0  0  0
   -8.3409  -14.6553   11.5719 C   0  0  0  0  0  0  0  0  0  0  0  0
   -9.5296  -14.5547   11.2978 O   0  0  0  0  0  0  0  0  0  0  0  0
   -7.5420  -13.4431   11.8503 C   0  0  0  0  0  0  0  0  0  0  0  0
   -8.1627  -12.1983   11.6738 C   0  0  0  0  0  0  0  0  0  0  0  0
   -7.4390  -11.0301   11.9055 C   0  0  0  0  0  0  0  0  0  0  0  0
   -6.1069  -11.0910   12.3103 C   0  0  0  0  0  0  0  0  0  0  0  0
   -5.4897  -12.3324   12.4853 C   0  0  0  0  0  0  0  0  0  0  0  0
   -6.2035  -13.5136   12.2549 C   0  0  0  0  0  0  0  0  0  0  0  0
   -5.3062  -15.1564   12.5638 Br  0  0  0  0  0  0  0  0  0  0  0  0
   -8.1960   -9.5005   11.6887 Cl  0  0  0  0  0  0  0  0  0  0  0  0
  1  2  1  0
  2  3  1  0
  3  4  2  0
  3  5  1  0
  5  6  2  0
  5 10  1  0
  6  7  1  0
  7  8  2  0
  7 12  1  0
  8  9  1  0
  9 10  2  0
 10 11  1  0
M  END
>  <Gold.Gold.Protein.RotatedWaterAtoms>  (177) 


>  <Gold.Id.Protein>  (177) 


>  <Gold.PLP.Chemscore.CHOScore>  (177) 
0.0000

>  <Gold.PLP.Chemscore.Hbond>  (177) 
0.4160

>  <Gold.PLP.Chemscore.Internal.Correction>  (177) 
0.0004

>  <Gold.PLP.Chemscore.Metal>  (177) 
0.0000

>  <Gold.PLP.Fitness>  (177) 
48.9046

>  <Gold.PLP.PLP>  (177) 
-47.6744

>  <Gold.PLP.ligand.clash>  (177) 
0.0000

>  <Gold.PLP.ligand.torsion>  (177) 
0.0091

>  <Gold.PLP.part.buried>  (177) 
-7.3578

>  <Gold.PLP.part.hbond>  (177) 
-0.5127

>  <Gold.PLP.part.metal>  (177) 
0.0000

>  <Gold.PLP.part.nonpolar>  (177) 
-40.3098

>  <Gold.PLP.part.repulsive>  (177) 
0.1684

>  <Gold.Protein.RotatedAtoms>  (177) 


>  <Gold.Protein.RotatedTorsions>  (177) 


>  <Gold.Protein.RotatedWaterAtoms>  (177) 


>  <Gold.Version>  (177) 
5.3.0

>  <PLP.Chemscore.CHOScore>  (177) 


>  <PLP.Chemscore.Hbond>  (177) 


>  <PLP.Chemscore.Internal.Correction>  (177) 


>  <PLP.Chemscore.Metal>  (177) 


>  <PLP.Fitness>  (177) 


>  <PLP.PLP>  (177) 


>  <PLP.ligand.clash>  (177) 


>  <PLP.ligand.torsion>  (177) 


>  <PLP.part.buried>  (177) 


>  <PLP.part.hbond>  (177) 


>  <PLP.part.metal>  (177) 


>  <PLP.part.nonpolar>  (177) 


>  <PLP.part.repulsive>  (177) 


>  <RMSD>  (177) 
0.30972197429

>  <Torsion>  (177) 
172.929186758

>  <TorsionO>  (177) 
24.4968065243

>  <TorsionR>  (177) 
162.574006718

>  <Version>  (177) 


>  <product>  (177) 
0|Compound_1|Compounds_3D_F|sdf|1|dock1|1

>  <rmsd>  (177) 
-1

$$$$
110|565385_49|Aromatic_carboxylic_acids_F|sdf|29|dock1|1
     RDKit          3D

 13 13  0  0  0  0  0  0  0  0999 V2000
  -10.1118  -17.9021   11.6320 C   0  0  0  0  0  0  0  0  0  0  0  0
   -9.7537  -16.5043   11.6546 N   0  0  0  0  0  0  0  0  0  0  0  0
   -8.4330  -16.1187   11.7930 C   0  0  0  0  0  0  0  0  0  0  0  0
   -7.5159  -16.9298   11.9008 O   0  0  0  0  0  0  0  0  0  0  0  0
   -8.1234  -14.6552   11.8105 C   0  0  0  0  0  0  0  0  0  0  0  0
   -9.0636  -13.6551   11.5375 C   0  0  0  0  0  0  0  0  0  0  0  0
   -8.6966  -12.3009   11.5726 C   0  0  0  0  0  0  0  0  0  0  0  0
   -7.3879  -11.9195   11.8809 C   0  0  0  0  0  0  0  0  0  0  0  0
   -6.4486  -12.9235   12.1551 C   0  0  0  0  0  0  0  0  0  0  0  0
   -6.8098  -14.2750   12.1207 C   0  0  0  0  0  0  0  0  0  0  0  0
   -4.6444  -12.5025   12.5849 Br  0  0  0  0  0  0  0  0  0  0  0  0
   -6.9476  -10.6242   11.9372 O   0  0  0  0  0  0  0  0  0  0  0  0
   -7.9020   -9.5910   11.7256 C   0  0  0  0  0  0  0  0  0  0  0  0
  1  2  1  0
  2  3  1  0
  3  4  2  0
  3  5  1  0
  5  6  2  0
  5 10  1  0
  6  7  1  0
  7  8  2  0
  8  9  1  0
  8 12  1  0
  9 10  2  0
  9 11  1  0
 12 13  1  0
M  END
>  <Gold.Gold.Protein.RotatedWaterAtoms>  (178) 


>  <Gold.Id.Protein>  (178) 


>  <Gold.PLP.Chemscore.CHOScore>  (178) 
0.0000

>  <Gold.PLP.Chemscore.Hbond>  (178) 
1.0000

>  <Gold.PLP.Chemscore.Internal.Correction>  (178) 
0.0000

>  <Gold.PLP.Chemscore.Metal>  (178) 
0.0000

>  <Gold.PLP.Fitness>  (178) 
43.9775

>  <Gold.PLP.PLP>  (178) 
-41.0517

>  <Gold.PLP.ligand.clash>  (178) 
0.0000

>  <Gold.PLP.ligand.torsion>  (178) 
0.0371

>  <Gold.PLP.part.buried>  (178) 
-3.7367

>  <Gold.PLP.part.hbond>  (178) 
-1.0000

>  <Gold.PLP.part.metal>  (178) 
0.0000

>  <Gold.PLP.part.nonpolar>  (178) 
-36.7483

>  <Gold.PLP.part.repulsive>  (178) 
0.4054

>  <Gold.Protein.RotatedAtoms>  (178) 


>  <Gold.Protein.RotatedTorsions>  (178) 


>  <Gold.Protein.RotatedWaterAtoms>  (178) 


>  <Gold.Version>  (178) 
5.3.0

>  <PLP.Chemscore.CHOScore>  (178) 


>  <PLP.Chemscore.Hbond>  (178) 


>  <PLP.Chemscore.Internal.Correction>  (178) 


>  <PLP.Chemscore.Metal>  (178) 


>  <PLP.Fitness>  (178) 


>  <PLP.PLP>  (178) 


>  <PLP.ligand.clash>  (178) 


>  <PLP.ligand.torsion>  (178) 


>  <PLP.part.buried>  (178) 


>  <PLP.part.hbond>  (178) 


>  <PLP.part.metal>  (178) 


>  <PLP.part.nonpolar>  (178) 


>  <PLP.part.repulsive>  (178) 


>  <RMSD>  (178) 
0.319376411377

>  <Torsion>  (178) 
169.460450784

>  <TorsionO>  (178) 
9.7963905484

>  <TorsionR>  (178) 
179.256841332

>  <Version>  (178) 


>  <product>  (178) 
0|Compound_1|Compounds_3D_F|sdf|1|dock1|1

>  <rmsd>  (178) 
-1

$$$$
128|137677_56|Aromatic_carboxylic_acids_F|sdf|33|dock1|1
     RDKit          3D

 11 11  0  0  0  0  0  0  0  0999 V2000
   -8.6116  -16.1544   11.8887 C   0  0  0  0  0  0  0  0  0  0  0  0
   -7.9978  -14.8484   11.9215 N   0  0  0  0  0  0  0  0  0  0  0  0
   -8.7778  -13.7008   11.8756 C   0  0  0  0  0  0  0  0  0  0  0  0
  -10.0002  -13.7896   11.8139 O   0  0  0  0  0  0  0  0  0  0  0  0
   -8.0808  -12.3609   11.9017 C   0  0  0  0  0  0  0  0  0  0  0  0
   -8.7916  -11.1851   11.5813 C   0  0  0  0  0  0  0  0  0  0  0  0
   -8.1781   -9.9267   11.5989 C   0  0  0  0  0  0  0  0  0  0  0  0
   -6.8391   -9.8089   11.9369 C   0  0  0  0  0  0  0  0  0  0  0  0
   -6.1124  -10.9502   12.2575 C   0  0  0  0  0  0  0  0  0  0  0  0
   -6.7171  -12.2196   12.2428 C   0  0  0  0  0  0  0  0  0  0  0  0
   -5.5419  -13.6455   12.7121 Br  0  0  0  0  0  0  0  0  0  0  0  0
  1  2  1  0
  2  3  1  0
  3  4  2  0
  3  5  1  0
  5  6  2  0
  5 10  1  0
  6  7  1  0
  7  8  2  0
  8  9  1  0
  9 10  2  0
 10 11  1  0
M  END
>  <Gold.Gold.Protein.RotatedWaterAtoms>  (179) 


>  <Gold.Id.Protein>  (179) 


>  <Gold.PLP.Chemscore.CHOScore>  (179) 
0.0000

>  <Gold.PLP.Chemscore.Hbond>  (179) 
1.0000

>  <Gold.PLP.Chemscore.Internal.Correction>  (179) 
0.0000

>  <Gold.PLP.Chemscore.Metal>  (179) 
0.0000

>  <Gold.PLP.Fitness>  (179) 
45.2899

>  <Gold.PLP.PLP>  (179) 
-42.4444

>  <Gold.PLP.ligand.clash>  (179) 
0.0000

>  <Gold.PLP.ligand.torsion>  (179) 
0.0772

>  <Gold.PLP.part.buried>  (179) 
-6.4690

>  <Gold.PLP.part.hbond>  (179) 
-0.6863

>  <Gold.PLP.part.metal>  (179) 
0.0000

>  <Gold.PLP.part.nonpolar>  (179) 
-34.8280

>  <Gold.PLP.part.repulsive>  (179) 
0.1963

>  <Gold.Protein.RotatedAtoms>  (179) 


>  <Gold.Protein.RotatedTorsions>  (179) 


>  <Gold.Protein.RotatedWaterAtoms>  (179) 


>  <Gold.Version>  (179) 
5.3.0

>  <PLP.Chemscore.CHOScore>  (179) 


>  <PLP.Chemscore.Hbond>  (179) 


>  <PLP.Chemscore.Internal.Correction>  (179) 


>  <PLP.Chemscore.Metal>  (179) 


>  <PLP.Fitness>  (179) 


>  <PLP.PLP>  (179) 


>  <PLP.ligand.clash>  (179) 


>  <PLP.ligand.torsion>  (179) 


>  <PLP.part.buried>  (179) 


>  <PLP.part.hbond>  (179) 


>  <PLP.part.metal>  (179) 


>  <PLP.part.nonpolar>  (179) 


>  <PLP.part.repulsive>  (179) 


>  <RMSD>  (179) 
0.428070490903

>  <Torsion>  (179) 
152.444048788

>  <TorsionO>  (179) 
39.0580871276

>  <TorsionR>  (179) 
168.497864085

>  <Version>  (179) 


>  <product>  (179) 
0|Compound_1|Compounds_3D_F|sdf|1|dock1|1

>  <rmsd>  (179) 
-1

$$$$
974|750794_1404|Aromatic_primary_amines_F|sdf|194|dock3|1
     RDKit          3D

 14 14  0  0  0  0  0  0  0  0999 V2000
  -13.6355  -18.1936    9.4145 C   0  0  0  0  0  0  0  0  0  0  0  0
  -13.2544  -19.4497   10.1732 C   0  0  0  0  0  0  0  0  0  0  0  0
  -11.8731  -19.3506   10.5383 O   0  0  0  0  0  0  0  0  0  0  0  0
  -11.6148  -18.5085   11.5823 C   0  0  0  0  0  0  0  0  0  0  0  0
  -12.3947  -18.2810   12.5004 O   0  0  0  0  0  0  0  0  0  0  0  0
  -10.3031  -17.8985   11.4902 C   0  0  0  0  0  0  0  0  0  0  0  0
   -9.1673  -18.4974   10.9931 C   0  0  0  0  0  0  0  0  0  0  0  0
   -8.1448  -17.6055   11.0758 O   0  0  0  0  0  0  0  0  0  0  0  0
   -8.7110  -16.4917   11.6237 C   0  0  0  0  0  0  0  0  0  0  0  0
   -9.9933  -16.6110   11.8915 N   0  0  0  0  0  0  0  0  0  0  0  0
   -7.9611  -15.3718   11.8549 N   0  0  0  0  0  0  0  0  0  0  0  0
   -8.5046  -14.1249   12.0676 C   0  0  0  0  0  0  0  0  0  0  0  0
   -9.6950  -13.8313   12.1035 O   0  0  0  0  0  0  0  0  0  0  0  0
   -7.4448  -13.0785   12.3021 C   0  0  0  0  0  0  0  0  0  0  0  0
  1  2  1  0
  2  3  1  0
  3  4  1  0
  4  5  2  0
  4  6  1  0
  6  7  2  0
  6 10  1  0
  7  8  1  0
  8  9  1  0
  9 10  2  0
  9 11  1  0
 11 12  1  0
 12 13  2  0
 12 14  1  0
M  END
>  <Gold.Gold.Protein.RotatedWaterAtoms>  (180) 


>  <Gold.Id.Protein>  (180) 


>  <Gold.PLP.Chemscore.CHOScore>  (180) 
0.0000

>  <Gold.PLP.Chemscore.Hbond>  (180) 
2.0000

>  <Gold.PLP.Chemscore.Internal.Correction>  (180) 
0.0053

>  <Gold.PLP.Chemscore.Metal>  (180) 
0.0000

>  <Gold.PLP.Fitness>  (180) 
36.8047

>  <Gold.PLP.PLP>  (180) 
-32.7996

>  <Gold.PLP.ligand.clash>  (180) 
0.0000

>  <Gold.PLP.ligand.torsion>  (180) 
1.0001

>  <Gold.PLP.part.buried>  (180) 
-6.5206

>  <Gold.PLP.part.hbond>  (180) 
-2.9156

>  <Gold.PLP.part.metal>  (180) 
0.0000

>  <Gold.PLP.part.nonpolar>  (180) 
-23.4080

>  <Gold.PLP.part.repulsive>  (180) 
0.3100

>  <Gold.Protein.RotatedAtoms>  (180) 


>  <Gold.Protein.RotatedTorsions>  (180) 


>  <Gold.Protein.RotatedWaterAtoms>  (180) 


>  <Gold.Version>  (180) 
5.3.0

>  <PLP.Chemscore.CHOScore>  (180) 


>  <PLP.Chemscore.Hbond>  (180) 


>  <PLP.Chemscore.Internal.Correction>  (180) 


>  <PLP.Chemscore.Metal>  (180) 


>  <PLP.Fitness>  (180) 


>  <PLP.PLP>  (180) 


>  <PLP.ligand.clash>  (180) 


>  <PLP.ligand.torsion>  (180) 


>  <PLP.part.buried>  (180) 


>  <PLP.part.hbond>  (180) 


>  <PLP.part.metal>  (180) 


>  <PLP.part.nonpolar>  (180) 


>  <PLP.part.repulsive>  (180) 


>  <RMSD>  (180) 
0.499949349045

>  <Torsion>  (180) 
159.973716791

>  <TorsionO>  (180) 
19.1052109979

>  <TorsionR>  (180) 
179.078927789

>  <Version>  (180) 


>  <product>  (180) 
0|Compound_1|Compounds_3D_F|sdf|1|dock1|1

>  <rmsd>  (180) 
-1

$$$$
1884|M3006_1781|Aromatic_primary_amines_F|sdf|361|dock3|1
     RDKit          3D

 31 34  0  0  0  0  0  0  0  0999 V2000
  -14.4210  -19.8971    8.7934 C   0  0  0  0  0  0  0  0  0  0  0  0
  -13.9762  -19.4927   10.1894 C   0  0  0  0  0  0  0  0  0  0  0  0
  -14.1356  -20.6409   11.1817 C   0  0  0  0  0  0  0  0  0  0  0  0
  -13.5197  -20.3070   12.5189 C   0  0  0  0  0  0  0  0  0  0  0  0
  -12.9307  -19.2724   12.7954 O   0  0  0  0  0  0  0  0  0  0  0  0
  -13.7110  -21.3451   13.3845 O   0  0  0  0  0  0  0  0  0  0  0  0
  -12.9425  -21.2698   14.5900 C   0  0  0  0  0  0  0  0  0  0  0  0
  -12.8849  -22.6189   15.2889 C   0  0  0  0  0  0  0  0  0  0  0  0
  -11.6552  -22.4172   16.1494 C   0  0  0  0  0  0  0  0  0  0  0  0
  -11.2420  -23.7410   16.7624 C   0  0  0  0  0  0  0  0  0  0  0  0
  -12.3024  -24.2223   17.5862 O   0  0  0  0  0  0  0  0  0  0  0  0
  -13.7888  -24.3384   16.9603 P   0  0  0  0  0  0  0  0  0  0  0  0
  -14.8775  -24.6795   17.9243 O   0  0  0  0  0  0  0  0  0  0  0  0
  -13.9839  -22.9641   16.1174 O   0  0  0  0  0  0  0  0  0  0  0  0
  -13.5991  -25.4435   15.8075 O   0  0  0  0  0  0  0  0  0  0  0  0
  -10.6922  -21.8161   15.2889 O   0  0  0  0  0  0  0  0  0  0  0  0
  -11.4338  -20.9664   14.3653 C   0  0  0  0  0  0  0  0  0  0  0  0
  -10.9052  -21.2017   13.0342 N   0  0  0  0  0  0  0  0  0  0  0  0
  -10.7814  -22.4114   12.4013 C   0  0  0  0  0  0  0  0  0  0  0  0
  -10.2640  -22.2918   11.1953 N   0  0  0  0  0  0  0  0  0  0  0  0
  -10.0274  -20.9476   11.0424 C   0  0  0  0  0  0  0  0  0  0  0  0
  -10.4203  -20.2487   12.1733 C   0  0  0  0  0  0  0  0  0  0  0  0
  -10.3338  -18.9216   12.3641 N   0  0  0  0  0  0  0  0  0  0  0  0
   -9.8057  -18.2730   11.3024 C   0  0  0  0  0  0  0  0  0  0  0  0
   -9.3808  -18.8370   10.1545 N   0  0  0  0  0  0  0  0  0  0  0  0
   -9.4895  -20.1691   10.0244 C   0  0  0  0  0  0  0  0  0  0  0  0
   -9.0330  -20.6622    8.8349 O   0  0  0  0  0  0  0  0  0  0  0  0
   -9.7222  -16.8901   11.4793 N   0  0  0  0  0  0  0  0  0  0  0  0
   -8.5796  -16.1798   11.7761 C   0  0  0  0  0  0  0  0  0  0  0  0
   -7.4445  -16.6221   11.9131 O   0  0  0  0  0  0  0  0  0  0  0  0
   -8.8524  -14.7024   11.8973 C   0  0  0  0  0  0  0  0  0  0  0  0
  1  2  1  0
  2  3  1  0
  3  4  1  0
  4  5  2  0
  4  6  1  0
  6  7  1  0
  7  8  1  0
  7 17  1  0
  8  9  1  0
  8 14  1  0
  9 10  1  0
  9 16  1  0
 10 11  1  0
 11 12  1  0
 12 13  2  0
 12 14  1  0
 12 15  1  0
 16 17  1  0
 17 18  1  0
 18 19  1  0
 18 22  1  0
 19 20  2  0
 20 21  1  0
 21 22  2  0
 21 26  1  0
 22 23  1  0
 23 24  2  0
 24 25  1  0
 24 28  1  0
 25 26  2  0
 26 27  1  0
 28 29  1  0
 29 30  2  0
 29 31  1  0
M  END
>  <Gold.Gold.Protein.RotatedWaterAtoms>  (181) 


>  <Gold.Id.Protein>  (181) 


>  <Gold.PLP.Chemscore.CHOScore>  (181) 
0.0000

>  <Gold.PLP.Chemscore.Hbond>  (181) 
1.2080

>  <Gold.PLP.Chemscore.Internal.Correction>  (181) 
0.1232

>  <Gold.PLP.Chemscore.Metal>  (181) 
0.0000

>  <Gold.PLP.Fitness>  (181) 
47.7145

>  <Gold.PLP.PLP>  (181) 
-46.0218

>  <Gold.PLP.ligand.clash>  (181) 
0.0000

>  <Gold.PLP.ligand.torsion>  (181) 
1.0272

>  <Gold.PLP.part.buried>  (181) 
-2.2958

>  <Gold.PLP.part.hbond>  (181) 
-4.0214

>  <Gold.PLP.part.metal>  (181) 
0.0000

>  <Gold.PLP.part.nonpolar>  (181) 
-41.4699

>  <Gold.PLP.part.repulsive>  (181) 
0.9524

>  <Gold.Protein.RotatedAtoms>  (181) 


>  <Gold.Protein.RotatedTorsions>  (181) 


>  <Gold.Protein.RotatedWaterAtoms>  (181) 


>  <Gold.Version>  (181) 
5.3.0

>  <PLP.Chemscore.CHOScore>  (181) 


>  <PLP.Chemscore.Hbond>  (181) 


>  <PLP.Chemscore.Internal.Correction>  (181) 


>  <PLP.Chemscore.Metal>  (181) 


>  <PLP.Fitness>  (181) 


>  <PLP.PLP>  (181) 


>  <PLP.ligand.clash>  (181) 


>  <PLP.ligand.torsion>  (181) 


>  <PLP.part.buried>  (181) 


>  <PLP.part.hbond>  (181) 


>  <PLP.part.metal>  (181) 


>  <PLP.part.nonpolar>  (181) 


>  <PLP.part.repulsive>  (181) 


>  <RMSD>  (181) 
0.291955871297

>  <Torsion>  (181) 
171.923704933

>  <TorsionO>  (181) 
6.03609353985

>  <TorsionR>  (181) 
177.959798473

>  <Version>  (181) 


>  <product>  (181) 
0|Compound_1|Compounds_3D_F|sdf|1|dock1|1

>  <rmsd>  (181) 
-1

$$$$
193|32168_281|Aromatic_primary_amines_F|sdf|39|dock6|1
     RDKit          3D

 23 25  0  0  0  0  0  0  0  0999 V2000
   -7.8439  -12.1461   11.8919 C   0  0  0  0  0  0  0  0  0  0  0  0
   -8.5691  -13.4472   11.6781 C   0  0  0  0  0  0  0  0  0  0  0  0
   -9.7886  -13.4981   11.5208 O   0  0  0  0  0  0  0  0  0  0  0  0
   -7.7264  -14.5390   11.7020 N   0  0  0  0  0  0  0  0  0  0  0  0
   -8.1889  -15.8197   11.5323 C   0  0  0  0  0  0  0  0  0  0  0  0
   -9.4747  -16.2039   11.8163 N   0  0  0  0  0  0  0  0  0  0  0  0
   -9.5964  -17.5375   11.5379 C   0  0  0  0  0  0  0  0  0  0  0  0
  -10.6643  -18.4283   11.6415 C   0  0  0  0  0  0  0  0  0  0  0  0
  -10.4051  -19.7586   11.2778 C   0  0  0  0  0  0  0  0  0  0  0  0
   -9.1530  -20.1507   10.7795 C   0  0  0  0  0  0  0  0  0  0  0  0
   -8.1017  -19.2294   10.6839 C   0  0  0  0  0  0  0  0  0  0  0  0
   -8.3349  -17.9032   11.0783 C   0  0  0  0  0  0  0  0  0  0  0  0
   -7.4773  -16.8281   11.0838 N   0  0  0  0  0  0  0  0  0  0  0  0
   -8.8530  -21.7658   10.2429 Cl  0  0  0  0  0  0  0  0  0  0  0  0
  -11.4669  -20.6323   11.3734 O   0  0  0  0  0  0  0  0  0  0  0  0
  -12.5262  -20.4408   10.5053 C   0  0  0  0  0  0  0  0  0  0  0  0
  -13.3188  -19.2846   10.5304 C   0  0  0  0  0  0  0  0  0  0  0  0
  -14.3665  -19.1344    9.6224 C   0  0  0  0  0  0  0  0  0  0  0  0
  -14.6219  -20.1279    8.6796 C   0  0  0  0  0  0  0  0  0  0  0  0
  -13.8238  -21.2756    8.6345 C   0  0  0  0  0  0  0  0  0  0  0  0
  -12.7674  -21.4342    9.5416 C   0  0  0  0  0  0  0  0  0  0  0  0
  -11.7588  -22.8458    9.4996 Cl  0  0  0  0  0  0  0  0  0  0  0  0
  -14.1988  -22.4584    7.4296 Cl  0  0  0  0  0  0  0  0  0  0  0  0
  1  2  1  0
  2  3  2  0
  2  4  1  0
  4  5  1  0
  5  6  1  0
  5 13  2  0
  6  7  1  0
  7  8  2  0
  7 12  1  0
  8  9  1  0
  9 10  2  0
  9 15  1  0
 10 11  1  0
 10 14  1  0
 11 12  2  0
 12 13  1  0
 15 16  1  0
 16 17  2  0
 16 21  1  0
 17 18  1  0
 18 19  2  0
 19 20  1  0
 20 21  2  0
 20 23  1  0
 21 22  1  0
M  END
>  <Gold.Gold.Protein.RotatedWaterAtoms>  (182) 


>  <Gold.Id.Protein>  (182) 


>  <Gold.PLP.Chemscore.CHOScore>  (182) 
0.0000

>  <Gold.PLP.Chemscore.Hbond>  (182) 
1.0000

>  <Gold.PLP.Chemscore.Internal.Correction>  (182) 
0.0086

>  <Gold.PLP.Chemscore.Metal>  (182) 
0.0000

>  <Gold.PLP.Fitness>  (182) 
50.7139

>  <Gold.PLP.PLP>  (182) 
-48.1706

>  <Gold.PLP.ligand.clash>  (182) 
0.0000

>  <Gold.PLP.ligand.torsion>  (182) 
0.2327

>  <Gold.PLP.part.buried>  (182) 
-6.5205

>  <Gold.PLP.part.hbond>  (182) 
-2.0000

>  <Gold.PLP.part.metal>  (182) 
0.0000

>  <Gold.PLP.part.nonpolar>  (182) 
-39.3857

>  <Gold.PLP.part.repulsive>  (182) 
0.3298

>  <Gold.Protein.RotatedAtoms>  (182) 


>  <Gold.Protein.RotatedTorsions>  (182) 


>  <Gold.Protein.RotatedWaterAtoms>  (182) 


>  <Gold.Version>  (182) 
5.3.0

>  <PLP.Chemscore.CHOScore>  (182) 


>  <PLP.Chemscore.Hbond>  (182) 


>  <PLP.Chemscore.Internal.Correction>  (182) 


>  <PLP.Chemscore.Metal>  (182) 


>  <PLP.Fitness>  (182) 


>  <PLP.PLP>  (182) 


>  <PLP.ligand.clash>  (182) 


>  <PLP.ligand.torsion>  (182) 


>  <PLP.part.buried>  (182) 


>  <PLP.part.hbond>  (182) 


>  <PLP.part.metal>  (182) 


>  <PLP.part.nonpolar>  (182) 


>  <PLP.part.repulsive>  (182) 


>  <RMSD>  (182) 
0.439733510035

>  <Torsion>  (182) 
177.672185574

>  <TorsionO>  (182) 
4.31728583372

>  <TorsionR>  (182) 
173.35489974

>  <Version>  (182) 


>  <product>  (182) 
0|Compound_1|Compounds_3D_F|sdf|1|dock1|1

>  <rmsd>  (182) 
-1

$$$$
83|Compound_31|Compounds_3D_F|sdf|13|dock9|1
     RDKit          3D

 10  9  0  0  0  0  0  0  0  0999 V2000
   -4.3804  -12.2123   13.1679 O   0  0  0  0  0  0  0  0  0  0  0  0
   -5.4979  -12.5557   12.5099 C   0  0  0  0  0  0  0  0  0  0  0  0
   -6.1743  -11.7049   11.9808 O   0  0  0  0  0  0  0  0  0  0  0  0
   -5.9113  -14.0029   12.4305 C   0  0  0  0  0  0  0  0  0  0  0  0
   -4.8370  -14.7773   11.8945 O   0  0  0  0  0  0  0  0  0  0  0  0
   -7.1366  -14.1342   11.5234 C   0  0  0  0  0  0  0  0  0  0  0  0
   -7.4483  -15.5526   11.3259 N   0  0  0  0  0  0  0  0  0  0  0  0
   -8.6489  -16.0374   11.6990 C   0  0  0  0  0  0  0  0  0  0  0  0
   -9.4712  -15.2993   12.1986 O   0  0  0  0  0  0  0  0  0  0  0  0
   -8.9826  -17.5564   11.4866 B   0  0  0  0  0  0  0  0  0  0  0  0
  1  2  1  0
  2  3  2  0
  2  4  1  0
  4  5  1  0
  4  6  1  0
  6  7  1  0
  7  8  1  0
  8  9  2  0
  8 10  1  0
M  END
>  <Gold.Gold.Protein.RotatedWaterAtoms>  (183) 


>  <Gold.Id.Protein>  (183) 


>  <Gold.PLP.Chemscore.CHOScore>  (183) 
0.0000

>  <Gold.PLP.Chemscore.Hbond>  (183) 
2.6800

>  <Gold.PLP.Chemscore.Internal.Correction>  (183) 
0.0004

>  <Gold.PLP.Chemscore.Metal>  (183) 
0.0000

>  <Gold.PLP.Fitness>  (183) 
36.6419

>  <Gold.PLP.PLP>  (183) 
-28.7559

>  <Gold.PLP.ligand.clash>  (183) 
0.0000

>  <Gold.PLP.ligand.torsion>  (183) 
0.0772

>  <Gold.PLP.part.buried>  (183) 
-7.1726

>  <Gold.PLP.part.hbond>  (183) 
-5.8872

>  <Gold.PLP.part.metal>  (183) 
0.0000

>  <Gold.PLP.part.nonpolar>  (183) 
-16.3404

>  <Gold.PLP.part.repulsive>  (183) 
0.4256

>  <Gold.Protein.RotatedAtoms>  (183) 


>  <Gold.Protein.RotatedTorsions>  (183) 


>  <Gold.Protein.RotatedWaterAtoms>  (183) 


>  <Gold.Version>  (183) 
5.3.0

>  <PLP.Chemscore.CHOScore>  (183) 


>  <PLP.Chemscore.Hbond>  (183) 


>  <PLP.Chemscore.Internal.Correction>  (183) 


>  <PLP.Chemscore.Metal>  (183) 


>  <PLP.Fitness>  (183) 


>  <PLP.PLP>  (183) 


>  <PLP.ligand.clash>  (183) 


>  <PLP.ligand.torsion>  (183) 


>  <PLP.part.buried>  (183) 


>  <PLP.part.hbond>  (183) 


>  <PLP.part.metal>  (183) 


>  <PLP.part.nonpolar>  (183) 


>  <PLP.part.repulsive>  (183) 


>  <Version>  (183) 


$$$$
94|664022_40|Aromatic_carboxylic_acids_F|sdf|24|dock1|1
     RDKit          3D

 12 12  0  0  0  0  0  0  0  0999 V2000
   -8.2596  -17.1212   11.4595 C   0  0  0  0  0  0  0  0  0  0  0  0
   -7.6366  -15.8367   11.6688 N   0  0  0  0  0  0  0  0  0  0  0  0
   -8.3409  -14.6553   11.5719 C   0  0  0  0  0  0  0  0  0  0  0  0
   -9.5296  -14.5547   11.2978 O   0  0  0  0  0  0  0  0  0  0  0  0
   -7.5420  -13.4431   11.8503 C   0  0  0  0  0  0  0  0  0  0  0  0
   -8.1627  -12.1983   11.6738 C   0  0  0  0  0  0  0  0  0  0  0  0
   -7.4390  -11.0301   11.9055 C   0  0  0  0  0  0  0  0  0  0  0  0
   -6.1069  -11.0910   12.3103 C   0  0  0  0  0  0  0  0  0  0  0  0
   -5.4897  -12.3324   12.4853 C   0  0  0  0  0  0  0  0  0  0  0  0
   -6.2035  -13.5136   12.2549 C   0  0  0  0  0  0  0  0  0  0  0  0
   -5.3062  -15.1564   12.5638 Br  0  0  0  0  0  0  0  0  0  0  0  0
   -8.1960   -9.5005   11.6887 Cl  0  0  0  0  0  0  0  0  0  0  0  0
  1  2  1  0
  2  3  1  0
  3  4  2  0
  3  5  1  0
  5  6  2  0
  5 10  1  0
  6  7  1  0
  7  8  2  0
  7 12  1  0
  8  9  1  0
  9 10  2  0
 10 11  1  0
M  END
>  <Gold.Gold.Protein.RotatedWaterAtoms>  (184) 


>  <Gold.Id.Protein>  (184) 


>  <Gold.PLP.Chemscore.CHOScore>  (184) 
0.0000

>  <Gold.PLP.Chemscore.Hbond>  (184) 
0.4160

>  <Gold.PLP.Chemscore.Internal.Correction>  (184) 
0.0004

>  <Gold.PLP.Chemscore.Metal>  (184) 
0.0000

>  <Gold.PLP.Fitness>  (184) 
48.9046

>  <Gold.PLP.PLP>  (184) 
-47.6744

>  <Gold.PLP.ligand.clash>  (184) 
0.0000

>  <Gold.PLP.ligand.torsion>  (184) 
0.0091

>  <Gold.PLP.part.buried>  (184) 
-7.3578

>  <Gold.PLP.part.hbond>  (184) 
-0.5127

>  <Gold.PLP.part.metal>  (184) 
0.0000

>  <Gold.PLP.part.nonpolar>  (184) 
-40.3098

>  <Gold.PLP.part.repulsive>  (184) 
0.1684

>  <Gold.Protein.RotatedAtoms>  (184) 


>  <Gold.Protein.RotatedTorsions>  (184) 


>  <Gold.Protein.RotatedWaterAtoms>  (184) 


>  <Gold.Version>  (184) 
5.3.0

>  <PLP.Chemscore.CHOScore>  (184) 


>  <PLP.Chemscore.Hbond>  (184) 


>  <PLP.Chemscore.Internal.Correction>  (184) 


>  <PLP.Chemscore.Metal>  (184) 


>  <PLP.Fitness>  (184) 


>  <PLP.PLP>  (184) 


>  <PLP.ligand.clash>  (184) 


>  <PLP.ligand.torsion>  (184) 


>  <PLP.part.buried>  (184) 


>  <PLP.part.hbond>  (184) 


>  <PLP.part.metal>  (184) 


>  <PLP.part.nonpolar>  (184) 


>  <PLP.part.repulsive>  (184) 


>  <RMSD>  (184) 
0.30972197429

>  <Torsion>  (184) 
172.929186758

>  <TorsionO>  (184) 
24.4968065243

>  <TorsionR>  (184) 
162.574006718

>  <Version>  (184) 


>  <product>  (184) 
83|Compound_31|Compounds_3D_F|sdf|13|dock9|1

>  <rmsd>  (184) 
-1

$$$$
110|565385_49|Aromatic_carboxylic_acids_F|sdf|29|dock1|1
     RDKit          3D

 13 13  0  0  0  0  0  0  0  0999 V2000
  -10.1118  -17.9021   11.6320 C   0  0  0  0  0  0  0  0  0  0  0  0
   -9.7537  -16.5043   11.6546 N   0  0  0  0  0  0  0  0  0  0  0  0
   -8.4330  -16.1187   11.7930 C   0  0  0  0  0  0  0  0  0  0  0  0
   -7.5159  -16.9298   11.9008 O   0  0  0  0  0  0  0  0  0  0  0  0
   -8.1234  -14.6552   11.8105 C   0  0  0  0  0  0  0  0  0  0  0  0
   -9.0636  -13.6551   11.5375 C   0  0  0  0  0  0  0  0  0  0  0  0
   -8.6966  -12.3009   11.5726 C   0  0  0  0  0  0  0  0  0  0  0  0
   -7.3879  -11.9195   11.8809 C   0  0  0  0  0  0  0  0  0  0  0  0
   -6.4486  -12.9235   12.1551 C   0  0  0  0  0  0  0  0  0  0  0  0
   -6.8098  -14.2750   12.1207 C   0  0  0  0  0  0  0  0  0  0  0  0
   -4.6444  -12.5025   12.5849 Br  0  0  0  0  0  0  0  0  0  0  0  0
   -6.9476  -10.6242   11.9372 O   0  0  0  0  0  0  0  0  0  0  0  0
   -7.9020   -9.5910   11.7256 C   0  0  0  0  0  0  0  0  0  0  0  0
  1  2  1  0
  2  3  1  0
  3  4  2  0
  3  5  1  0
  5  6  2  0
  5 10  1  0
  6  7  1  0
  7  8  2  0
  8  9  1  0
  8 12  1  0
  9 10  2  0
  9 11  1  0
 12 13  1  0
M  END
>  <Gold.Gold.Protein.RotatedWaterAtoms>  (185) 


>  <Gold.Id.Protein>  (185) 


>  <Gold.PLP.Chemscore.CHOScore>  (185) 
0.0000

>  <Gold.PLP.Chemscore.Hbond>  (185) 
1.0000

>  <Gold.PLP.Chemscore.Internal.Correction>  (185) 
0.0000

>  <Gold.PLP.Chemscore.Metal>  (185) 
0.0000

>  <Gold.PLP.Fitness>  (185) 
43.9775

>  <Gold.PLP.PLP>  (185) 
-41.0517

>  <Gold.PLP.ligand.clash>  (185) 
0.0000

>  <Gold.PLP.ligand.torsion>  (185) 
0.0371

>  <Gold.PLP.part.buried>  (185) 
-3.7367

>  <Gold.PLP.part.hbond>  (185) 
-1.0000

>  <Gold.PLP.part.metal>  (185) 
0.0000

>  <Gold.PLP.part.nonpolar>  (185) 
-36.7483

>  <Gold.PLP.part.repulsive>  (185) 
0.4054

>  <Gold.Protein.RotatedAtoms>  (185) 


>  <Gold.Protein.RotatedTorsions>  (185) 


>  <Gold.Protein.RotatedWaterAtoms>  (185) 


>  <Gold.Version>  (185) 
5.3.0

>  <PLP.Chemscore.CHOScore>  (185) 


>  <PLP.Chemscore.Hbond>  (185) 


>  <PLP.Chemscore.Internal.Correction>  (185) 


>  <PLP.Chemscore.Metal>  (185) 


>  <PLP.Fitness>  (185) 


>  <PLP.PLP>  (185) 


>  <PLP.ligand.clash>  (185) 


>  <PLP.ligand.torsion>  (185) 


>  <PLP.part.buried>  (185) 


>  <PLP.part.hbond>  (185) 


>  <PLP.part.metal>  (185) 


>  <PLP.part.nonpolar>  (185) 


>  <PLP.part.repulsive>  (185) 


>  <RMSD>  (185) 
0.319376411377

>  <Torsion>  (185) 
169.460450784

>  <TorsionO>  (185) 
9.7963905484

>  <TorsionR>  (185) 
179.256841332

>  <Version>  (185) 


>  <product>  (185) 
83|Compound_31|Compounds_3D_F|sdf|13|dock9|1

>  <rmsd>  (185) 
-1

$$$$
128|137677_56|Aromatic_carboxylic_acids_F|sdf|33|dock1|1
     RDKit          3D

 11 11  0  0  0  0  0  0  0  0999 V2000
   -8.6116  -16.1544   11.8887 C   0  0  0  0  0  0  0  0  0  0  0  0
   -7.9978  -14.8484   11.9215 N   0  0  0  0  0  0  0  0  0  0  0  0
   -8.7778  -13.7008   11.8756 C   0  0  0  0  0  0  0  0  0  0  0  0
  -10.0002  -13.7896   11.8139 O   0  0  0  0  0  0  0  0  0  0  0  0
   -8.0808  -12.3609   11.9017 C   0  0  0  0  0  0  0  0  0  0  0  0
   -8.7916  -11.1851   11.5813 C   0  0  0  0  0  0  0  0  0  0  0  0
   -8.1781   -9.9267   11.5989 C   0  0  0  0  0  0  0  0  0  0  0  0
   -6.8391   -9.8089   11.9369 C   0  0  0  0  0  0  0  0  0  0  0  0
   -6.1124  -10.9502   12.2575 C   0  0  0  0  0  0  0  0  0  0  0  0
   -6.7171  -12.2196   12.2428 C   0  0  0  0  0  0  0  0  0  0  0  0
   -5.5419  -13.6455   12.7121 Br  0  0  0  0  0  0  0  0  0  0  0  0
  1  2  1  0
  2  3  1  0
  3  4  2  0
  3  5  1  0
  5  6  2  0
  5 10  1  0
  6  7  1  0
  7  8  2  0
  8  9  1  0
  9 10  2  0
 10 11  1  0
M  END
>  <Gold.Gold.Protein.RotatedWaterAtoms>  (186) 


>  <Gold.Id.Protein>  (186) 


>  <Gold.PLP.Chemscore.CHOScore>  (186) 
0.0000

>  <Gold.PLP.Chemscore.Hbond>  (186) 
1.0000

>  <Gold.PLP.Chemscore.Internal.Correction>  (186) 
0.0000

>  <Gold.PLP.Chemscore.Metal>  (186) 
0.0000

>  <Gold.PLP.Fitness>  (186) 
45.2899

>  <Gold.PLP.PLP>  (186) 
-42.4444

>  <Gold.PLP.ligand.clash>  (186) 
0.0000

>  <Gold.PLP.ligand.torsion>  (186) 
0.0772

>  <Gold.PLP.part.buried>  (186) 
-6.4690

>  <Gold.PLP.part.hbond>  (186) 
-0.6863

>  <Gold.PLP.part.metal>  (186) 
0.0000

>  <Gold.PLP.part.nonpolar>  (186) 
-34.8280

>  <Gold.PLP.part.repulsive>  (186) 
0.1963

>  <Gold.Protein.RotatedAtoms>  (186) 


>  <Gold.Protein.RotatedTorsions>  (186) 


>  <Gold.Protein.RotatedWaterAtoms>  (186) 


>  <Gold.Version>  (186) 
5.3.0

>  <PLP.Chemscore.CHOScore>  (186) 


>  <PLP.Chemscore.Hbond>  (186) 


>  <PLP.Chemscore.Internal.Correction>  (186) 


>  <PLP.Chemscore.Metal>  (186) 


>  <PLP.Fitness>  (186) 


>  <PLP.PLP>  (186) 


>  <PLP.ligand.clash>  (186) 


>  <PLP.ligand.torsion>  (186) 


>  <PLP.part.buried>  (186) 


>  <PLP.part.hbond>  (186) 


>  <PLP.part.metal>  (186) 


>  <PLP.part.nonpolar>  (186) 


>  <PLP.part.repulsive>  (186) 


>  <RMSD>  (186) 
0.428070490903

>  <Torsion>  (186) 
152.444048788

>  <TorsionO>  (186) 
39.0580871276

>  <TorsionR>  (186) 
168.497864085

>  <Version>  (186) 


>  <product>  (186) 
83|Compound_31|Compounds_3D_F|sdf|13|dock9|1

>  <rmsd>  (186) 
-1

$$$$
974|750794_1404|Aromatic_primary_amines_F|sdf|194|dock3|1
     RDKit          3D

 14 14  0  0  0  0  0  0  0  0999 V2000
  -13.6355  -18.1936    9.4145 C   0  0  0  0  0  0  0  0  0  0  0  0
  -13.2544  -19.4497   10.1732 C   0  0  0  0  0  0  0  0  0  0  0  0
  -11.8731  -19.3506   10.5383 O   0  0  0  0  0  0  0  0  0  0  0  0
  -11.6148  -18.5085   11.5823 C   0  0  0  0  0  0  0  0  0  0  0  0
  -12.3947  -18.2810   12.5004 O   0  0  0  0  0  0  0  0  0  0  0  0
  -10.3031  -17.8985   11.4902 C   0  0  0  0  0  0  0  0  0  0  0  0
   -9.1673  -18.4974   10.9931 C   0  0  0  0  0  0  0  0  0  0  0  0
   -8.1448  -17.6055   11.0758 O   0  0  0  0  0  0  0  0  0  0  0  0
   -8.7110  -16.4917   11.6237 C   0  0  0  0  0  0  0  0  0  0  0  0
   -9.9933  -16.6110   11.8915 N   0  0  0  0  0  0  0  0  0  0  0  0
   -7.9611  -15.3718   11.8549 N   0  0  0  0  0  0  0  0  0  0  0  0
   -8.5046  -14.1249   12.0676 C   0  0  0  0  0  0  0  0  0  0  0  0
   -9.6950  -13.8313   12.1035 O   0  0  0  0  0  0  0  0  0  0  0  0
   -7.4448  -13.0785   12.3021 C   0  0  0  0  0  0  0  0  0  0  0  0
  1  2  1  0
  2  3  1  0
  3  4  1  0
  4  5  2  0
  4  6  1  0
  6  7  2  0
  6 10  1  0
  7  8  1  0
  8  9  1  0
  9 10  2  0
  9 11  1  0
 11 12  1  0
 12 13  2  0
 12 14  1  0
M  END
>  <Gold.Gold.Protein.RotatedWaterAtoms>  (187) 


>  <Gold.Id.Protein>  (187) 


>  <Gold.PLP.Chemscore.CHOScore>  (187) 
0.0000

>  <Gold.PLP.Chemscore.Hbond>  (187) 
2.0000

>  <Gold.PLP.Chemscore.Internal.Correction>  (187) 
0.0053

>  <Gold.PLP.Chemscore.Metal>  (187) 
0.0000

>  <Gold.PLP.Fitness>  (187) 
36.8047

>  <Gold.PLP.PLP>  (187) 
-32.7996

>  <Gold.PLP.ligand.clash>  (187) 
0.0000

>  <Gold.PLP.ligand.torsion>  (187) 
1.0001

>  <Gold.PLP.part.buried>  (187) 
-6.5206

>  <Gold.PLP.part.hbond>  (187) 
-2.9156

>  <Gold.PLP.part.metal>  (187) 
0.0000

>  <Gold.PLP.part.nonpolar>  (187) 
-23.4080

>  <Gold.PLP.part.repulsive>  (187) 
0.3100

>  <Gold.Protein.RotatedAtoms>  (187) 


>  <Gold.Protein.RotatedTorsions>  (187) 


>  <Gold.Protein.RotatedWaterAtoms>  (187) 


>  <Gold.Version>  (187) 
5.3.0

>  <PLP.Chemscore.CHOScore>  (187) 


>  <PLP.Chemscore.Hbond>  (187) 


>  <PLP.Chemscore.Internal.Correction>  (187) 


>  <PLP.Chemscore.Metal>  (187) 


>  <PLP.Fitness>  (187) 


>  <PLP.PLP>  (187) 


>  <PLP.ligand.clash>  (187) 


>  <PLP.ligand.torsion>  (187) 


>  <PLP.part.buried>  (187) 


>  <PLP.part.hbond>  (187) 


>  <PLP.part.metal>  (187) 


>  <PLP.part.nonpolar>  (187) 


>  <PLP.part.repulsive>  (187) 


>  <RMSD>  (187) 
0.499949349045

>  <Torsion>  (187) 
159.973716791

>  <TorsionO>  (187) 
19.1052109979

>  <TorsionR>  (187) 
179.078927789

>  <Version>  (187) 


>  <product>  (187) 
83|Compound_31|Compounds_3D_F|sdf|13|dock9|1

>  <rmsd>  (187) 
-1

$$$$
1884|M3006_1781|Aromatic_primary_amines_F|sdf|361|dock3|1
     RDKit          3D

 31 34  0  0  0  0  0  0  0  0999 V2000
  -14.4210  -19.8971    8.7934 C   0  0  0  0  0  0  0  0  0  0  0  0
  -13.9762  -19.4927   10.1894 C   0  0  0  0  0  0  0  0  0  0  0  0
  -14.1356  -20.6409   11.1817 C   0  0  0  0  0  0  0  0  0  0  0  0
  -13.5197  -20.3070   12.5189 C   0  0  0  0  0  0  0  0  0  0  0  0
  -12.9307  -19.2724   12.7954 O   0  0  0  0  0  0  0  0  0  0  0  0
  -13.7110  -21.3451   13.3845 O   0  0  0  0  0  0  0  0  0  0  0  0
  -12.9425  -21.2698   14.5900 C   0  0  0  0  0  0  0  0  0  0  0  0
  -12.8849  -22.6189   15.2889 C   0  0  0  0  0  0  0  0  0  0  0  0
  -11.6552  -22.4172   16.1494 C   0  0  0  0  0  0  0  0  0  0  0  0
  -11.2420  -23.7410   16.7624 C   0  0  0  0  0  0  0  0  0  0  0  0
  -12.3024  -24.2223   17.5862 O   0  0  0  0  0  0  0  0  0  0  0  0
  -13.7888  -24.3384   16.9603 P   0  0  0  0  0  0  0  0  0  0  0  0
  -14.8775  -24.6795   17.9243 O   0  0  0  0  0  0  0  0  0  0  0  0
  -13.9839  -22.9641   16.1174 O   0  0  0  0  0  0  0  0  0  0  0  0
  -13.5991  -25.4435   15.8075 O   0  0  0  0  0  0  0  0  0  0  0  0
  -10.6922  -21.8161   15.2889 O   0  0  0  0  0  0  0  0  0  0  0  0
  -11.4338  -20.9664   14.3653 C   0  0  0  0  0  0  0  0  0  0  0  0
  -10.9052  -21.2017   13.0342 N   0  0  0  0  0  0  0  0  0  0  0  0
  -10.7814  -22.4114   12.4013 C   0  0  0  0  0  0  0  0  0  0  0  0
  -10.2640  -22.2918   11.1953 N   0  0  0  0  0  0  0  0  0  0  0  0
  -10.0274  -20.9476   11.0424 C   0  0  0  0  0  0  0  0  0  0  0  0
  -10.4203  -20.2487   12.1733 C   0  0  0  0  0  0  0  0  0  0  0  0
  -10.3338  -18.9216   12.3641 N   0  0  0  0  0  0  0  0  0  0  0  0
   -9.8057  -18.2730   11.3024 C   0  0  0  0  0  0  0  0  0  0  0  0
   -9.3808  -18.8370   10.1545 N   0  0  0  0  0  0  0  0  0  0  0  0
   -9.4895  -20.1691   10.0244 C   0  0  0  0  0  0  0  0  0  0  0  0
   -9.0330  -20.6622    8.8349 O   0  0  0  0  0  0  0  0  0  0  0  0
   -9.7222  -16.8901   11.4793 N   0  0  0  0  0  0  0  0  0  0  0  0
   -8.5796  -16.1798   11.7761 C   0  0  0  0  0  0  0  0  0  0  0  0
   -7.4445  -16.6221   11.9131 O   0  0  0  0  0  0  0  0  0  0  0  0
   -8.8524  -14.7024   11.8973 C   0  0  0  0  0  0  0  0  0  0  0  0
  1  2  1  0
  2  3  1  0
  3  4  1  0
  4  5  2  0
  4  6  1  0
  6  7  1  0
  7  8  1  0
  7 17  1  0
  8  9  1  0
  8 14  1  0
  9 10  1  0
  9 16  1  0
 10 11  1  0
 11 12  1  0
 12 13  2  0
 12 14  1  0
 12 15  1  0
 16 17  1  0
 17 18  1  0
 18 19  1  0
 18 22  1  0
 19 20  2  0
 20 21  1  0
 21 22  2  0
 21 26  1  0
 22 23  1  0
 23 24  2  0
 24 25  1  0
 24 28  1  0
 25 26  2  0
 26 27  1  0
 28 29  1  0
 29 30  2  0
 29 31  1  0
M  END
>  <Gold.Gold.Protein.RotatedWaterAtoms>  (188) 


>  <Gold.Id.Protein>  (188) 


>  <Gold.PLP.Chemscore.CHOScore>  (188) 
0.0000

>  <Gold.PLP.Chemscore.Hbond>  (188) 
1.2080

>  <Gold.PLP.Chemscore.Internal.Correction>  (188) 
0.1232

>  <Gold.PLP.Chemscore.Metal>  (188) 
0.0000

>  <Gold.PLP.Fitness>  (188) 
47.7145

>  <Gold.PLP.PLP>  (188) 
-46.0218

>  <Gold.PLP.ligand.clash>  (188) 
0.0000

>  <Gold.PLP.ligand.torsion>  (188) 
1.0272

>  <Gold.PLP.part.buried>  (188) 
-2.2958

>  <Gold.PLP.part.hbond>  (188) 
-4.0214

>  <Gold.PLP.part.metal>  (188) 
0.0000

>  <Gold.PLP.part.nonpolar>  (188) 
-41.4699

>  <Gold.PLP.part.repulsive>  (188) 
0.9524

>  <Gold.Protein.RotatedAtoms>  (188) 


>  <Gold.Protein.RotatedTorsions>  (188) 


>  <Gold.Protein.RotatedWaterAtoms>  (188) 


>  <Gold.Version>  (188) 
5.3.0

>  <PLP.Chemscore.CHOScore>  (188) 


>  <PLP.Chemscore.Hbond>  (188) 


>  <PLP.Chemscore.Internal.Correction>  (188) 


>  <PLP.Chemscore.Metal>  (188) 


>  <PLP.Fitness>  (188) 


>  <PLP.PLP>  (188) 


>  <PLP.ligand.clash>  (188) 


>  <PLP.ligand.torsion>  (188) 


>  <PLP.part.buried>  (188) 


>  <PLP.part.hbond>  (188) 


>  <PLP.part.metal>  (188) 


>  <PLP.part.nonpolar>  (188) 


>  <PLP.part.repulsive>  (188) 


>  <RMSD>  (188) 
0.291955871297

>  <Torsion>  (188) 
171.923704933

>  <TorsionO>  (188) 
6.03609353985

>  <TorsionR>  (188) 
177.959798473

>  <Version>  (188) 


>  <product>  (188) 
83|Compound_31|Compounds_3D_F|sdf|13|dock9|1

>  <rmsd>  (188) 
-1

$$$$
193|32168_281|Aromatic_primary_amines_F|sdf|39|dock6|1
     RDKit          3D

 23 25  0  0  0  0  0  0  0  0999 V2000
   -7.8439  -12.1461   11.8919 C   0  0  0  0  0  0  0  0  0  0  0  0
   -8.5691  -13.4472   11.6781 C   0  0  0  0  0  0  0  0  0  0  0  0
   -9.7886  -13.4981   11.5208 O   0  0  0  0  0  0  0  0  0  0  0  0
   -7.7264  -14.5390   11.7020 N   0  0  0  0  0  0  0  0  0  0  0  0
   -8.1889  -15.8197   11.5323 C   0  0  0  0  0  0  0  0  0  0  0  0
   -9.4747  -16.2039   11.8163 N   0  0  0  0  0  0  0  0  0  0  0  0
   -9.5964  -17.5375   11.5379 C   0  0  0  0  0  0  0  0  0  0  0  0
  -10.6643  -18.4283   11.6415 C   0  0  0  0  0  0  0  0  0  0  0  0
  -10.4051  -19.7586   11.2778 C   0  0  0  0  0  0  0  0  0  0  0  0
   -9.1530  -20.1507   10.7795 C   0  0  0  0  0  0  0  0  0  0  0  0
   -8.1017  -19.2294   10.6839 C   0  0  0  0  0  0  0  0  0  0  0  0
   -8.3349  -17.9032   11.0783 C   0  0  0  0  0  0  0  0  0  0  0  0
   -7.4773  -16.8281   11.0838 N   0  0  0  0  0  0  0  0  0  0  0  0
   -8.8530  -21.7658   10.2429 Cl  0  0  0  0  0  0  0  0  0  0  0  0
  -11.4669  -20.6323   11.3734 O   0  0  0  0  0  0  0  0  0  0  0  0
  -12.5262  -20.4408   10.5053 C   0  0  0  0  0  0  0  0  0  0  0  0
  -13.3188  -19.2846   10.5304 C   0  0  0  0  0  0  0  0  0  0  0  0
  -14.3665  -19.1344    9.6224 C   0  0  0  0  0  0  0  0  0  0  0  0
  -14.6219  -20.1279    8.6796 C   0  0  0  0  0  0  0  0  0  0  0  0
  -13.8238  -21.2756    8.6345 C   0  0  0  0  0  0  0  0  0  0  0  0
  -12.7674  -21.4342    9.5416 C   0  0  0  0  0  0  0  0  0  0  0  0
  -11.7588  -22.8458    9.4996 Cl  0  0  0  0  0  0  0  0  0  0  0  0
  -14.1988  -22.4584    7.4296 Cl  0  0  0  0  0  0  0  0  0  0  0  0
  1  2  1  0
  2  3  2  0
  2  4  1  0
  4  5  1  0
  5  6  1  0
  5 13  2  0
  6  7  1  0
  7  8  2  0
  7 12  1  0
  8  9  1  0
  9 10  2  0
  9 15  1  0
 10 11  1  0
 10 14  1  0
 11 12  2  0
 12 13  1  0
 15 16  1  0
 16 17  2  0
 16 21  1  0
 17 18  1  0
 18 19  2  0
 19 20  1  0
 20 21  2  0
 20 23  1  0
 21 22  1  0
M  END
>  <Gold.Gold.Protein.RotatedWaterAtoms>  (189) 


>  <Gold.Id.Protein>  (189) 


>  <Gold.PLP.Chemscore.CHOScore>  (189) 
0.0000

>  <Gold.PLP.Chemscore.Hbond>  (189) 
1.0000

>  <Gold.PLP.Chemscore.Internal.Correction>  (189) 
0.0086

>  <Gold.PLP.Chemscore.Metal>  (189) 
0.0000

>  <Gold.PLP.Fitness>  (189) 
50.7139

>  <Gold.PLP.PLP>  (189) 
-48.1706

>  <Gold.PLP.ligand.clash>  (189) 
0.0000

>  <Gold.PLP.ligand.torsion>  (189) 
0.2327

>  <Gold.PLP.part.buried>  (189) 
-6.5205

>  <Gold.PLP.part.hbond>  (189) 
-2.0000

>  <Gold.PLP.part.metal>  (189) 
0.0000

>  <Gold.PLP.part.nonpolar>  (189) 
-39.3857

>  <Gold.PLP.part.repulsive>  (189) 
0.3298

>  <Gold.Protein.RotatedAtoms>  (189) 


>  <Gold.Protein.RotatedTorsions>  (189) 


>  <Gold.Protein.RotatedWaterAtoms>  (189) 


>  <Gold.Version>  (189) 
5.3.0

>  <PLP.Chemscore.CHOScore>  (189) 


>  <PLP.Chemscore.Hbond>  (189) 


>  <PLP.Chemscore.Internal.Correction>  (189) 


>  <PLP.Chemscore.Metal>  (189) 


>  <PLP.Fitness>  (189) 


>  <PLP.PLP>  (189) 


>  <PLP.ligand.clash>  (189) 


>  <PLP.ligand.torsion>  (189) 


>  <PLP.part.buried>  (189) 


>  <PLP.part.hbond>  (189) 


>  <PLP.part.metal>  (189) 


>  <PLP.part.nonpolar>  (189) 


>  <PLP.part.repulsive>  (189) 


>  <RMSD>  (189) 
0.439733510035

>  <Torsion>  (189) 
177.672185574

>  <TorsionO>  (189) 
4.31728583372

>  <TorsionR>  (189) 
173.35489974

>  <Version>  (189) 


>  <product>  (189) 
83|Compound_31|Compounds_3D_F|sdf|13|dock9|1

>  <rmsd>  (189) 
-1

$$$$
1|Compound_1|Compounds_3D_F|sdf|1|dock2|1
     RDKit          3D

  5  4  0  0  0  0  0  0  0  0999 V2000
   -5.4975  -12.3545   12.5001 B   0  0  0  0  0  0  0  0  0  0  0  0
   -5.6747  -13.9108   12.3986 C   0  0  0  0  0  0  0  0  0  0  0  0
   -6.7778  -14.4039   12.4999 O   0  0  0  0  0  0  0  0  0  0  0  0
   -4.5998  -14.6996   12.1990 N   0  0  0  0  0  0  0  0  0  0  0  0
   -4.7654  -16.1525   12.1046 C   0  0  0  0  0  0  0  0  0  0  0  0
  1  2  1  0
  2  3  2  0
  2  4  1  0
  4  5  1  0
M  END
>  <Gold.Gold.Protein.RotatedWaterAtoms>  (190) 


>  <Gold.Id.Protein>  (190) 


>  <Gold.PLP.Chemscore.CHOScore>  (190) 
0.0000

>  <Gold.PLP.Chemscore.Hbond>  (190) 
1.0000

>  <Gold.PLP.Chemscore.Internal.Correction>  (190) 
0.0000

>  <Gold.PLP.Chemscore.Metal>  (190) 
0.0000

>  <Gold.PLP.Fitness>  (190) 
20.8062

>  <Gold.PLP.PLP>  (190) 
-17.8062

>  <Gold.PLP.ligand.clash>  (190) 
0.0000

>  <Gold.PLP.ligand.torsion>  (190) 
0.0000

>  <Gold.PLP.part.buried>  (190) 
-3.8644

>  <Gold.PLP.part.hbond>  (190) 
-2.0000

>  <Gold.PLP.part.metal>  (190) 
0.0000

>  <Gold.PLP.part.nonpolar>  (190) 
-12.0292

>  <Gold.PLP.part.repulsive>  (190) 
0.2664

>  <Gold.Protein.RotatedAtoms>  (190) 


>  <Gold.Protein.RotatedTorsions>  (190) 


>  <Gold.Protein.RotatedWaterAtoms>  (190) 


>  <Gold.Version>  (190) 
5.3.0

>  <PLP.Chemscore.CHOScore>  (190) 


>  <PLP.Chemscore.Hbond>  (190) 


>  <PLP.Chemscore.Internal.Correction>  (190) 


>  <PLP.Chemscore.Metal>  (190) 


>  <PLP.Fitness>  (190) 


>  <PLP.PLP>  (190) 


>  <PLP.ligand.clash>  (190) 


>  <PLP.ligand.torsion>  (190) 


>  <PLP.part.buried>  (190) 


>  <PLP.part.hbond>  (190) 


>  <PLP.part.metal>  (190) 


>  <PLP.part.nonpolar>  (190) 


>  <PLP.part.repulsive>  (190) 


>  <Version>  (190) 


$$$$
94|664022_40|Aromatic_carboxylic_acids_F|sdf|24|dock1|1
     RDKit          3D

 12 12  0  0  0  0  0  0  0  0999 V2000
   -8.2596  -17.1212   11.4595 C   0  0  0  0  0  0  0  0  0  0  0  0
   -7.6366  -15.8367   11.6688 N   0  0  0  0  0  0  0  0  0  0  0  0
   -8.3409  -14.6553   11.5719 C   0  0  0  0  0  0  0  0  0  0  0  0
   -9.5296  -14.5547   11.2978 O   0  0  0  0  0  0  0  0  0  0  0  0
   -7.5420  -13.4431   11.8503 C   0  0  0  0  0  0  0  0  0  0  0  0
   -8.1627  -12.1983   11.6738 C   0  0  0  0  0  0  0  0  0  0  0  0
   -7.4390  -11.0301   11.9055 C   0  0  0  0  0  0  0  0  0  0  0  0
   -6.1069  -11.0910   12.3103 C   0  0  0  0  0  0  0  0  0  0  0  0
   -5.4897  -12.3324   12.4853 C   0  0  0  0  0  0  0  0  0  0  0  0
   -6.2035  -13.5136   12.2549 C   0  0  0  0  0  0  0  0  0  0  0  0
   -5.3062  -15.1564   12.5638 Br  0  0  0  0  0  0  0  0  0  0  0  0
   -8.1960   -9.5005   11.6887 Cl  0  0  0  0  0  0  0  0  0  0  0  0
  1  2  1  0
  2  3  1  0
  3  4  2  0
  3  5  1  0
  5  6  2  0
  5 10  1  0
  6  7  1  0
  7  8  2  0
  7 12  1  0
  8  9  1  0
  9 10  2  0
 10 11  1  0
M  END
>  <Gold.Gold.Protein.RotatedWaterAtoms>  (191) 


>  <Gold.Id.Protein>  (191) 


>  <Gold.PLP.Chemscore.CHOScore>  (191) 
0.0000

>  <Gold.PLP.Chemscore.Hbond>  (191) 
0.4160

>  <Gold.PLP.Chemscore.Internal.Correction>  (191) 
0.0004

>  <Gold.PLP.Chemscore.Metal>  (191) 
0.0000

>  <Gold.PLP.Fitness>  (191) 
48.9046

>  <Gold.PLP.PLP>  (191) 
-47.6744

>  <Gold.PLP.ligand.clash>  (191) 
0.0000

>  <Gold.PLP.ligand.torsion>  (191) 
0.0091

>  <Gold.PLP.part.buried>  (191) 
-7.3578

>  <Gold.PLP.part.hbond>  (191) 
-0.5127

>  <Gold.PLP.part.metal>  (191) 
0.0000

>  <Gold.PLP.part.nonpolar>  (191) 
-40.3098

>  <Gold.PLP.part.repulsive>  (191) 
0.1684

>  <Gold.Protein.RotatedAtoms>  (191) 


>  <Gold.Protein.RotatedTorsions>  (191) 


>  <Gold.Protein.RotatedWaterAtoms>  (191) 


>  <Gold.Version>  (191) 
5.3.0

>  <PLP.Chemscore.CHOScore>  (191) 


>  <PLP.Chemscore.Hbond>  (191) 


>  <PLP.Chemscore.Internal.Correction>  (191) 


>  <PLP.Chemscore.Metal>  (191) 


>  <PLP.Fitness>  (191) 


>  <PLP.PLP>  (191) 


>  <PLP.ligand.clash>  (191) 


>  <PLP.ligand.torsion>  (191) 


>  <PLP.part.buried>  (191) 


>  <PLP.part.hbond>  (191) 


>  <PLP.part.metal>  (191) 


>  <PLP.part.nonpolar>  (191) 


>  <PLP.part.repulsive>  (191) 


>  <RMSD>  (191) 
0.30972197429

>  <Torsion>  (191) 
172.929186758

>  <TorsionO>  (191) 
24.4968065243

>  <TorsionR>  (191) 
162.574006718

>  <Version>  (191) 


>  <product>  (191) 
1|Compound_1|Compounds_3D_F|sdf|1|dock2|1

>  <rmsd>  (191) 
-1

$$$$
110|565385_49|Aromatic_carboxylic_acids_F|sdf|29|dock1|1
     RDKit          3D

 13 13  0  0  0  0  0  0  0  0999 V2000
  -10.1118  -17.9021   11.6320 C   0  0  0  0  0  0  0  0  0  0  0  0
   -9.7537  -16.5043   11.6546 N   0  0  0  0  0  0  0  0  0  0  0  0
   -8.4330  -16.1187   11.7930 C   0  0  0  0  0  0  0  0  0  0  0  0
   -7.5159  -16.9298   11.9008 O   0  0  0  0  0  0  0  0  0  0  0  0
   -8.1234  -14.6552   11.8105 C   0  0  0  0  0  0  0  0  0  0  0  0
   -9.0636  -13.6551   11.5375 C   0  0  0  0  0  0  0  0  0  0  0  0
   -8.6966  -12.3009   11.5726 C   0  0  0  0  0  0  0  0  0  0  0  0
   -7.3879  -11.9195   11.8809 C   0  0  0  0  0  0  0  0  0  0  0  0
   -6.4486  -12.9235   12.1551 C   0  0  0  0  0  0  0  0  0  0  0  0
   -6.8098  -14.2750   12.1207 C   0  0  0  0  0  0  0  0  0  0  0  0
   -4.6444  -12.5025   12.5849 Br  0  0  0  0  0  0  0  0  0  0  0  0
   -6.9476  -10.6242   11.9372 O   0  0  0  0  0  0  0  0  0  0  0  0
   -7.9020   -9.5910   11.7256 C   0  0  0  0  0  0  0  0  0  0  0  0
  1  2  1  0
  2  3  1  0
  3  4  2  0
  3  5  1  0
  5  6  2  0
  5 10  1  0
  6  7  1  0
  7  8  2  0
  8  9  1  0
  8 12  1  0
  9 10  2  0
  9 11  1  0
 12 13  1  0
M  END
>  <Gold.Gold.Protein.RotatedWaterAtoms>  (192) 


>  <Gold.Id.Protein>  (192) 


>  <Gold.PLP.Chemscore.CHOScore>  (192) 
0.0000

>  <Gold.PLP.Chemscore.Hbond>  (192) 
1.0000

>  <Gold.PLP.Chemscore.Internal.Correction>  (192) 
0.0000

>  <Gold.PLP.Chemscore.Metal>  (192) 
0.0000

>  <Gold.PLP.Fitness>  (192) 
43.9775

>  <Gold.PLP.PLP>  (192) 
-41.0517

>  <Gold.PLP.ligand.clash>  (192) 
0.0000

>  <Gold.PLP.ligand.torsion>  (192) 
0.0371

>  <Gold.PLP.part.buried>  (192) 
-3.7367

>  <Gold.PLP.part.hbond>  (192) 
-1.0000

>  <Gold.PLP.part.metal>  (192) 
0.0000

>  <Gold.PLP.part.nonpolar>  (192) 
-36.7483

>  <Gold.PLP.part.repulsive>  (192) 
0.4054

>  <Gold.Protein.RotatedAtoms>  (192) 


>  <Gold.Protein.RotatedTorsions>  (192) 


>  <Gold.Protein.RotatedWaterAtoms>  (192) 


>  <Gold.Version>  (192) 
5.3.0

>  <PLP.Chemscore.CHOScore>  (192) 


>  <PLP.Chemscore.Hbond>  (192) 


>  <PLP.Chemscore.Internal.Correction>  (192) 


>  <PLP.Chemscore.Metal>  (192) 


>  <PLP.Fitness>  (192) 


>  <PLP.PLP>  (192) 


>  <PLP.ligand.clash>  (192) 


>  <PLP.ligand.torsion>  (192) 


>  <PLP.part.buried>  (192) 


>  <PLP.part.hbond>  (192) 


>  <PLP.part.metal>  (192) 


>  <PLP.part.nonpolar>  (192) 


>  <PLP.part.repulsive>  (192) 


>  <RMSD>  (192) 
0.319376411377

>  <Torsion>  (192) 
169.460450784

>  <TorsionO>  (192) 
9.7963905484

>  <TorsionR>  (192) 
179.256841332

>  <Version>  (192) 


>  <product>  (192) 
1|Compound_1|Compounds_3D_F|sdf|1|dock2|1

>  <rmsd>  (192) 
-1

$$$$
128|137677_56|Aromatic_carboxylic_acids_F|sdf|33|dock1|1
     RDKit          3D

 11 11  0  0  0  0  0  0  0  0999 V2000
   -8.6116  -16.1544   11.8887 C   0  0  0  0  0  0  0  0  0  0  0  0
   -7.9978  -14.8484   11.9215 N   0  0  0  0  0  0  0  0  0  0  0  0
   -8.7778  -13.7008   11.8756 C   0  0  0  0  0  0  0  0  0  0  0  0
  -10.0002  -13.7896   11.8139 O   0  0  0  0  0  0  0  0  0  0  0  0
   -8.0808  -12.3609   11.9017 C   0  0  0  0  0  0  0  0  0  0  0  0
   -8.7916  -11.1851   11.5813 C   0  0  0  0  0  0  0  0  0  0  0  0
   -8.1781   -9.9267   11.5989 C   0  0  0  0  0  0  0  0  0  0  0  0
   -6.8391   -9.8089   11.9369 C   0  0  0  0  0  0  0  0  0  0  0  0
   -6.1124  -10.9502   12.2575 C   0  0  0  0  0  0  0  0  0  0  0  0
   -6.7171  -12.2196   12.2428 C   0  0  0  0  0  0  0  0  0  0  0  0
   -5.5419  -13.6455   12.7121 Br  0  0  0  0  0  0  0  0  0  0  0  0
  1  2  1  0
  2  3  1  0
  3  4  2  0
  3  5  1  0
  5  6  2  0
  5 10  1  0
  6  7  1  0
  7  8  2  0
  8  9  1  0
  9 10  2  0
 10 11  1  0
M  END
>  <Gold.Gold.Protein.RotatedWaterAtoms>  (193) 


>  <Gold.Id.Protein>  (193) 


>  <Gold.PLP.Chemscore.CHOScore>  (193) 
0.0000

>  <Gold.PLP.Chemscore.Hbond>  (193) 
1.0000

>  <Gold.PLP.Chemscore.Internal.Correction>  (193) 
0.0000

>  <Gold.PLP.Chemscore.Metal>  (193) 
0.0000

>  <Gold.PLP.Fitness>  (193) 
45.2899

>  <Gold.PLP.PLP>  (193) 
-42.4444

>  <Gold.PLP.ligand.clash>  (193) 
0.0000

>  <Gold.PLP.ligand.torsion>  (193) 
0.0772

>  <Gold.PLP.part.buried>  (193) 
-6.4690

>  <Gold.PLP.part.hbond>  (193) 
-0.6863

>  <Gold.PLP.part.metal>  (193) 
0.0000

>  <Gold.PLP.part.nonpolar>  (193) 
-34.8280

>  <Gold.PLP.part.repulsive>  (193) 
0.1963

>  <Gold.Protein.RotatedAtoms>  (193) 


>  <Gold.Protein.RotatedTorsions>  (193) 


>  <Gold.Protein.RotatedWaterAtoms>  (193) 


>  <Gold.Version>  (193) 
5.3.0

>  <PLP.Chemscore.CHOScore>  (193) 


>  <PLP.Chemscore.Hbond>  (193) 


>  <PLP.Chemscore.Internal.Correction>  (193) 


>  <PLP.Chemscore.Metal>  (193) 


>  <PLP.Fitness>  (193) 


>  <PLP.PLP>  (193) 


>  <PLP.ligand.clash>  (193) 


>  <PLP.ligand.torsion>  (193) 


>  <PLP.part.buried>  (193) 


>  <PLP.part.hbond>  (193) 


>  <PLP.part.metal>  (193) 


>  <PLP.part.nonpolar>  (193) 


>  <PLP.part.repulsive>  (193) 


>  <RMSD>  (193) 
0.428070490903

>  <Torsion>  (193) 
152.444048788

>  <TorsionO>  (193) 
39.0580871276

>  <TorsionR>  (193) 
168.497864085

>  <Version>  (193) 


>  <product>  (193) 
1|Compound_1|Compounds_3D_F|sdf|1|dock2|1

>  <rmsd>  (193) 
-1

$$$$
974|750794_1404|Aromatic_primary_amines_F|sdf|194|dock3|1
     RDKit          3D

 14 14  0  0  0  0  0  0  0  0999 V2000
  -13.6355  -18.1936    9.4145 C   0  0  0  0  0  0  0  0  0  0  0  0
  -13.2544  -19.4497   10.1732 C   0  0  0  0  0  0  0  0  0  0  0  0
  -11.8731  -19.3506   10.5383 O   0  0  0  0  0  0  0  0  0  0  0  0
  -11.6148  -18.5085   11.5823 C   0  0  0  0  0  0  0  0  0  0  0  0
  -12.3947  -18.2810   12.5004 O   0  0  0  0  0  0  0  0  0  0  0  0
  -10.3031  -17.8985   11.4902 C   0  0  0  0  0  0  0  0  0  0  0  0
   -9.1673  -18.4974   10.9931 C   0  0  0  0  0  0  0  0  0  0  0  0
   -8.1448  -17.6055   11.0758 O   0  0  0  0  0  0  0  0  0  0  0  0
   -8.7110  -16.4917   11.6237 C   0  0  0  0  0  0  0  0  0  0  0  0
   -9.9933  -16.6110   11.8915 N   0  0  0  0  0  0  0  0  0  0  0  0
   -7.9611  -15.3718   11.8549 N   0  0  0  0  0  0  0  0  0  0  0  0
   -8.5046  -14.1249   12.0676 C   0  0  0  0  0  0  0  0  0  0  0  0
   -9.6950  -13.8313   12.1035 O   0  0  0  0  0  0  0  0  0  0  0  0
   -7.4448  -13.0785   12.3021 C   0  0  0  0  0  0  0  0  0  0  0  0
  1  2  1  0
  2  3  1  0
  3  4  1  0
  4  5  2  0
  4  6  1  0
  6  7  2  0
  6 10  1  0
  7  8  1  0
  8  9  1  0
  9 10  2  0
  9 11  1  0
 11 12  1  0
 12 13  2  0
 12 14  1  0
M  END
>  <Gold.Gold.Protein.RotatedWaterAtoms>  (194) 


>  <Gold.Id.Protein>  (194) 


>  <Gold.PLP.Chemscore.CHOScore>  (194) 
0.0000

>  <Gold.PLP.Chemscore.Hbond>  (194) 
2.0000

>  <Gold.PLP.Chemscore.Internal.Correction>  (194) 
0.0053

>  <Gold.PLP.Chemscore.Metal>  (194) 
0.0000

>  <Gold.PLP.Fitness>  (194) 
36.8047

>  <Gold.PLP.PLP>  (194) 
-32.7996

>  <Gold.PLP.ligand.clash>  (194) 
0.0000

>  <Gold.PLP.ligand.torsion>  (194) 
1.0001

>  <Gold.PLP.part.buried>  (194) 
-6.5206

>  <Gold.PLP.part.hbond>  (194) 
-2.9156

>  <Gold.PLP.part.metal>  (194) 
0.0000

>  <Gold.PLP.part.nonpolar>  (194) 
-23.4080

>  <Gold.PLP.part.repulsive>  (194) 
0.3100

>  <Gold.Protein.RotatedAtoms>  (194) 


>  <Gold.Protein.RotatedTorsions>  (194) 


>  <Gold.Protein.RotatedWaterAtoms>  (194) 


>  <Gold.Version>  (194) 
5.3.0

>  <PLP.Chemscore.CHOScore>  (194) 


>  <PLP.Chemscore.Hbond>  (194) 


>  <PLP.Chemscore.Internal.Correction>  (194) 


>  <PLP.Chemscore.Metal>  (194) 


>  <PLP.Fitness>  (194) 


>  <PLP.PLP>  (194) 


>  <PLP.ligand.clash>  (194) 


>  <PLP.ligand.torsion>  (194) 


>  <PLP.part.buried>  (194) 


>  <PLP.part.hbond>  (194) 


>  <PLP.part.metal>  (194) 


>  <PLP.part.nonpolar>  (194) 


>  <PLP.part.repulsive>  (194) 


>  <RMSD>  (194) 
0.499949349045

>  <Torsion>  (194) 
159.973716791

>  <TorsionO>  (194) 
19.1052109979

>  <TorsionR>  (194) 
179.078927789

>  <Version>  (194) 


>  <product>  (194) 
1|Compound_1|Compounds_3D_F|sdf|1|dock2|1

>  <rmsd>  (194) 
-1

$$$$
1884|M3006_1781|Aromatic_primary_amines_F|sdf|361|dock3|1
     RDKit          3D

 31 34  0  0  0  0  0  0  0  0999 V2000
  -14.4210  -19.8971    8.7934 C   0  0  0  0  0  0  0  0  0  0  0  0
  -13.9762  -19.4927   10.1894 C   0  0  0  0  0  0  0  0  0  0  0  0
  -14.1356  -20.6409   11.1817 C   0  0  0  0  0  0  0  0  0  0  0  0
  -13.5197  -20.3070   12.5189 C   0  0  0  0  0  0  0  0  0  0  0  0
  -12.9307  -19.2724   12.7954 O   0  0  0  0  0  0  0  0  0  0  0  0
  -13.7110  -21.3451   13.3845 O   0  0  0  0  0  0  0  0  0  0  0  0
  -12.9425  -21.2698   14.5900 C   0  0  0  0  0  0  0  0  0  0  0  0
  -12.8849  -22.6189   15.2889 C   0  0  0  0  0  0  0  0  0  0  0  0
  -11.6552  -22.4172   16.1494 C   0  0  0  0  0  0  0  0  0  0  0  0
  -11.2420  -23.7410   16.7624 C   0  0  0  0  0  0  0  0  0  0  0  0
  -12.3024  -24.2223   17.5862 O   0  0  0  0  0  0  0  0  0  0  0  0
  -13.7888  -24.3384   16.9603 P   0  0  0  0  0  0  0  0  0  0  0  0
  -14.8775  -24.6795   17.9243 O   0  0  0  0  0  0  0  0  0  0  0  0
  -13.9839  -22.9641   16.1174 O   0  0  0  0  0  0  0  0  0  0  0  0
  -13.5991  -25.4435   15.8075 O   0  0  0  0  0  0  0  0  0  0  0  0
  -10.6922  -21.8161   15.2889 O   0  0  0  0  0  0  0  0  0  0  0  0
  -11.4338  -20.9664   14.3653 C   0  0  0  0  0  0  0  0  0  0  0  0
  -10.9052  -21.2017   13.0342 N   0  0  0  0  0  0  0  0  0  0  0  0
  -10.7814  -22.4114   12.4013 C   0  0  0  0  0  0  0  0  0  0  0  0
  -10.2640  -22.2918   11.1953 N   0  0  0  0  0  0  0  0  0  0  0  0
  -10.0274  -20.9476   11.0424 C   0  0  0  0  0  0  0  0  0  0  0  0
  -10.4203  -20.2487   12.1733 C   0  0  0  0  0  0  0  0  0  0  0  0
  -10.3338  -18.9216   12.3641 N   0  0  0  0  0  0  0  0  0  0  0  0
   -9.8057  -18.2730   11.3024 C   0  0  0  0  0  0  0  0  0  0  0  0
   -9.3808  -18.8370   10.1545 N   0  0  0  0  0  0  0  0  0  0  0  0
   -9.4895  -20.1691   10.0244 C   0  0  0  0  0  0  0  0  0  0  0  0
   -9.0330  -20.6622    8.8349 O   0  0  0  0  0  0  0  0  0  0  0  0
   -9.7222  -16.8901   11.4793 N   0  0  0  0  0  0  0  0  0  0  0  0
   -8.5796  -16.1798   11.7761 C   0  0  0  0  0  0  0  0  0  0  0  0
   -7.4445  -16.6221   11.9131 O   0  0  0  0  0  0  0  0  0  0  0  0
   -8.8524  -14.7024   11.8973 C   0  0  0  0  0  0  0  0  0  0  0  0
  1  2  1  0
  2  3  1  0
  3  4  1  0
  4  5  2  0
  4  6  1  0
  6  7  1  0
  7  8  1  0
  7 17  1  0
  8  9  1  0
  8 14  1  0
  9 10  1  0
  9 16  1  0
 10 11  1  0
 11 12  1  0
 12 13  2  0
 12 14  1  0
 12 15  1  0
 16 17  1  0
 17 18  1  0
 18 19  1  0
 18 22  1  0
 19 20  2  0
 20 21  1  0
 21 22  2  0
 21 26  1  0
 22 23  1  0
 23 24  2  0
 24 25  1  0
 24 28  1  0
 25 26  2  0
 26 27  1  0
 28 29  1  0
 29 30  2  0
 29 31  1  0
M  END
>  <Gold.Gold.Protein.RotatedWaterAtoms>  (195) 


>  <Gold.Id.Protein>  (195) 


>  <Gold.PLP.Chemscore.CHOScore>  (195) 
0.0000

>  <Gold.PLP.Chemscore.Hbond>  (195) 
1.2080

>  <Gold.PLP.Chemscore.Internal.Correction>  (195) 
0.1232

>  <Gold.PLP.Chemscore.Metal>  (195) 
0.0000

>  <Gold.PLP.Fitness>  (195) 
47.7145

>  <Gold.PLP.PLP>  (195) 
-46.0218

>  <Gold.PLP.ligand.clash>  (195) 
0.0000

>  <Gold.PLP.ligand.torsion>  (195) 
1.0272

>  <Gold.PLP.part.buried>  (195) 
-2.2958

>  <Gold.PLP.part.hbond>  (195) 
-4.0214

>  <Gold.PLP.part.metal>  (195) 
0.0000

>  <Gold.PLP.part.nonpolar>  (195) 
-41.4699

>  <Gold.PLP.part.repulsive>  (195) 
0.9524

>  <Gold.Protein.RotatedAtoms>  (195) 


>  <Gold.Protein.RotatedTorsions>  (195) 


>  <Gold.Protein.RotatedWaterAtoms>  (195) 


>  <Gold.Version>  (195) 
5.3.0

>  <PLP.Chemscore.CHOScore>  (195) 


>  <PLP.Chemscore.Hbond>  (195) 


>  <PLP.Chemscore.Internal.Correction>  (195) 


>  <PLP.Chemscore.Metal>  (195) 


>  <PLP.Fitness>  (195) 


>  <PLP.PLP>  (195) 


>  <PLP.ligand.clash>  (195) 


>  <PLP.ligand.torsion>  (195) 


>  <PLP.part.buried>  (195) 


>  <PLP.part.hbond>  (195) 


>  <PLP.part.metal>  (195) 


>  <PLP.part.nonpolar>  (195) 


>  <PLP.part.repulsive>  (195) 


>  <RMSD>  (195) 
0.291955871297

>  <Torsion>  (195) 
171.923704933

>  <TorsionO>  (195) 
6.03609353985

>  <TorsionR>  (195) 
177.959798473

>  <Version>  (195) 


>  <product>  (195) 
1|Compound_1|Compounds_3D_F|sdf|1|dock2|1

>  <rmsd>  (195) 
-1

$$$$
193|32168_281|Aromatic_primary_amines_F|sdf|39|dock6|1
     RDKit          3D

 23 25  0  0  0  0  0  0  0  0999 V2000
   -7.8439  -12.1461   11.8919 C   0  0  0  0  0  0  0  0  0  0  0  0
   -8.5691  -13.4472   11.6781 C   0  0  0  0  0  0  0  0  0  0  0  0
   -9.7886  -13.4981   11.5208 O   0  0  0  0  0  0  0  0  0  0  0  0
   -7.7264  -14.5390   11.7020 N   0  0  0  0  0  0  0  0  0  0  0  0
   -8.1889  -15.8197   11.5323 C   0  0  0  0  0  0  0  0  0  0  0  0
   -9.4747  -16.2039   11.8163 N   0  0  0  0  0  0  0  0  0  0  0  0
   -9.5964  -17.5375   11.5379 C   0  0  0  0  0  0  0  0  0  0  0  0
  -10.6643  -18.4283   11.6415 C   0  0  0  0  0  0  0  0  0  0  0  0
  -10.4051  -19.7586   11.2778 C   0  0  0  0  0  0  0  0  0  0  0  0
   -9.1530  -20.1507   10.7795 C   0  0  0  0  0  0  0  0  0  0  0  0
   -8.1017  -19.2294   10.6839 C   0  0  0  0  0  0  0  0  0  0  0  0
   -8.3349  -17.9032   11.0783 C   0  0  0  0  0  0  0  0  0  0  0  0
   -7.4773  -16.8281   11.0838 N   0  0  0  0  0  0  0  0  0  0  0  0
   -8.8530  -21.7658   10.2429 Cl  0  0  0  0  0  0  0  0  0  0  0  0
  -11.4669  -20.6323   11.3734 O   0  0  0  0  0  0  0  0  0  0  0  0
  -12.5262  -20.4408   10.5053 C   0  0  0  0  0  0  0  0  0  0  0  0
  -13.3188  -19.2846   10.5304 C   0  0  0  0  0  0  0  0  0  0  0  0
  -14.3665  -19.1344    9.6224 C   0  0  0  0  0  0  0  0  0  0  0  0
  -14.6219  -20.1279    8.6796 C   0  0  0  0  0  0  0  0  0  0  0  0
  -13.8238  -21.2756    8.6345 C   0  0  0  0  0  0  0  0  0  0  0  0
  -12.7674  -21.4342    9.5416 C   0  0  0  0  0  0  0  0  0  0  0  0
  -11.7588  -22.8458    9.4996 Cl  0  0  0  0  0  0  0  0  0  0  0  0
  -14.1988  -22.4584    7.4296 Cl  0  0  0  0  0  0  0  0  0  0  0  0
  1  2  1  0
  2  3  2  0
  2  4  1  0
  4  5  1  0
  5  6  1  0
  5 13  2  0
  6  7  1  0
  7  8  2  0
  7 12  1  0
  8  9  1  0
  9 10  2  0
  9 15  1  0
 10 11  1  0
 10 14  1  0
 11 12  2  0
 12 13  1  0
 15 16  1  0
 16 17  2  0
 16 21  1  0
 17 18  1  0
 18 19  2  0
 19 20  1  0
 20 21  2  0
 20 23  1  0
 21 22  1  0
M  END
>  <Gold.Gold.Protein.RotatedWaterAtoms>  (196) 


>  <Gold.Id.Protein>  (196) 


>  <Gold.PLP.Chemscore.CHOScore>  (196) 
0.0000

>  <Gold.PLP.Chemscore.Hbond>  (196) 
1.0000

>  <Gold.PLP.Chemscore.Internal.Correction>  (196) 
0.0086

>  <Gold.PLP.Chemscore.Metal>  (196) 
0.0000

>  <Gold.PLP.Fitness>  (196) 
50.7139

>  <Gold.PLP.PLP>  (196) 
-48.1706

>  <Gold.PLP.ligand.clash>  (196) 
0.0000

>  <Gold.PLP.ligand.torsion>  (196) 
0.2327

>  <Gold.PLP.part.buried>  (196) 
-6.5205

>  <Gold.PLP.part.hbond>  (196) 
-2.0000

>  <Gold.PLP.part.metal>  (196) 
0.0000

>  <Gold.PLP.part.nonpolar>  (196) 
-39.3857

>  <Gold.PLP.part.repulsive>  (196) 
0.3298

>  <Gold.Protein.RotatedAtoms>  (196) 


>  <Gold.Protein.RotatedTorsions>  (196) 


>  <Gold.Protein.RotatedWaterAtoms>  (196) 


>  <Gold.Version>  (196) 
5.3.0

>  <PLP.Chemscore.CHOScore>  (196) 


>  <PLP.Chemscore.Hbond>  (196) 


>  <PLP.Chemscore.Internal.Correction>  (196) 


>  <PLP.Chemscore.Metal>  (196) 


>  <PLP.Fitness>  (196) 


>  <PLP.PLP>  (196) 


>  <PLP.ligand.clash>  (196) 


>  <PLP.ligand.torsion>  (196) 


>  <PLP.part.buried>  (196) 


>  <PLP.part.hbond>  (196) 


>  <PLP.part.metal>  (196) 


>  <PLP.part.nonpolar>  (196) 


>  <PLP.part.repulsive>  (196) 


>  <RMSD>  (196) 
0.439733510035

>  <Torsion>  (196) 
177.672185574

>  <TorsionO>  (196) 
4.31728583372

>  <TorsionR>  (196) 
173.35489974

>  <Version>  (196) 


>  <product>  (196) 
1|Compound_1|Compounds_3D_F|sdf|1|dock2|1

>  <rmsd>  (196) 
-1

$$$$
36|Compound_20|Compounds_3D_F|sdf|7|dock2|1
     RDKit          3D

  8  7  0  0  0  0  0  0  0  0999 V2000
   -2.4956  -17.3055    9.3126 B   0  0  0  0  0  0  0  0  0  0  0  0
   -3.3858  -17.3040   10.6054 C   0  0  0  0  0  0  0  0  0  0  0  0
   -3.6068  -18.3423   11.1913 O   0  0  0  0  0  0  0  0  0  0  0  0
   -3.9051  -16.1477   11.0643 N   0  0  0  0  0  0  0  0  0  0  0  0
   -4.7364  -16.1464   12.2710 C   0  0  0  0  0  0  0  0  0  0  0  0
   -5.6757  -14.9389   12.2418 C   0  0  0  0  0  0  0  0  0  0  0  0
   -4.8832  -13.7029   12.1997 N   0  0  0  0  0  0  0  0  0  0  0  0
   -5.7178  -12.5318   12.5000 C   0  0  0  0  0  0  0  0  0  0  0  0
  1  2  1  0
  2  3  2  0
  2  4  1  0
  4  5  1  0
  5  6  1  0
  6  7  1  0
  7  8  1  0
M  END
>  <Gold.Gold.Protein.RotatedWaterAtoms>  (197) 


>  <Gold.Id.Protein>  (197) 


>  <Gold.PLP.Chemscore.CHOScore>  (197) 
0.0000

>  <Gold.PLP.Chemscore.Hbond>  (197) 
2.0000

>  <Gold.PLP.Chemscore.Internal.Correction>  (197) 
0.0006

>  <Gold.PLP.Chemscore.Metal>  (197) 
0.0000

>  <Gold.PLP.Fitness>  (197) 
28.6893

>  <Gold.PLP.PLP>  (197) 
-23.1321

>  <Gold.PLP.ligand.clash>  (197) 
0.0000

>  <Gold.PLP.ligand.torsion>  (197) 
0.2217

>  <Gold.PLP.part.buried>  (197) 
-4.6600

>  <Gold.PLP.part.hbond>  (197) 
-3.0000

>  <Gold.PLP.part.metal>  (197) 
0.0000

>  <Gold.PLP.part.nonpolar>  (197) 
-15.4809

>  <Gold.PLP.part.repulsive>  (197) 
0.1380

>  <Gold.Protein.RotatedAtoms>  (197) 


>  <Gold.Protein.RotatedTorsions>  (197) 


>  <Gold.Protein.RotatedWaterAtoms>  (197) 


>  <Gold.Version>  (197) 
5.3.0

>  <PLP.Chemscore.CHOScore>  (197) 


>  <PLP.Chemscore.Hbond>  (197) 


>  <PLP.Chemscore.Internal.Correction>  (197) 


>  <PLP.Chemscore.Metal>  (197) 


>  <PLP.Fitness>  (197) 


>  <PLP.PLP>  (197) 


>  <PLP.ligand.clash>  (197) 


>  <PLP.ligand.torsion>  (197) 


>  <PLP.part.buried>  (197) 


>  <PLP.part.hbond>  (197) 


>  <PLP.part.metal>  (197) 


>  <PLP.part.nonpolar>  (197) 


>  <PLP.part.repulsive>  (197) 


>  <Version>  (197) 


$$$$
94|664022_40|Aromatic_carboxylic_acids_F|sdf|24|dock1|1
     RDKit          3D

 12 12  0  0  0  0  0  0  0  0999 V2000
   -8.2596  -17.1212   11.4595 C   0  0  0  0  0  0  0  0  0  0  0  0
   -7.6366  -15.8367   11.6688 N   0  0  0  0  0  0  0  0  0  0  0  0
   -8.3409  -14.6553   11.5719 C   0  0  0  0  0  0  0  0  0  0  0  0
   -9.5296  -14.5547   11.2978 O   0  0  0  0  0  0  0  0  0  0  0  0
   -7.5420  -13.4431   11.8503 C   0  0  0  0  0  0  0  0  0  0  0  0
   -8.1627  -12.1983   11.6738 C   0  0  0  0  0  0  0  0  0  0  0  0
   -7.4390  -11.0301   11.9055 C   0  0  0  0  0  0  0  0  0  0  0  0
   -6.1069  -11.0910   12.3103 C   0  0  0  0  0  0  0  0  0  0  0  0
   -5.4897  -12.3324   12.4853 C   0  0  0  0  0  0  0  0  0  0  0  0
   -6.2035  -13.5136   12.2549 C   0  0  0  0  0  0  0  0  0  0  0  0
   -5.3062  -15.1564   12.5638 Br  0  0  0  0  0  0  0  0  0  0  0  0
   -8.1960   -9.5005   11.6887 Cl  0  0  0  0  0  0  0  0  0  0  0  0
  1  2  1  0
  2  3  1  0
  3  4  2  0
  3  5  1  0
  5  6  2  0
  5 10  1  0
  6  7  1  0
  7  8  2  0
  7 12  1  0
  8  9  1  0
  9 10  2  0
 10 11  1  0
M  END
>  <Gold.Gold.Protein.RotatedWaterAtoms>  (198) 


>  <Gold.Id.Protein>  (198) 


>  <Gold.PLP.Chemscore.CHOScore>  (198) 
0.0000

>  <Gold.PLP.Chemscore.Hbond>  (198) 
0.4160

>  <Gold.PLP.Chemscore.Internal.Correction>  (198) 
0.0004

>  <Gold.PLP.Chemscore.Metal>  (198) 
0.0000

>  <Gold.PLP.Fitness>  (198) 
48.9046

>  <Gold.PLP.PLP>  (198) 
-47.6744

>  <Gold.PLP.ligand.clash>  (198) 
0.0000

>  <Gold.PLP.ligand.torsion>  (198) 
0.0091

>  <Gold.PLP.part.buried>  (198) 
-7.3578

>  <Gold.PLP.part.hbond>  (198) 
-0.5127

>  <Gold.PLP.part.metal>  (198) 
0.0000

>  <Gold.PLP.part.nonpolar>  (198) 
-40.3098

>  <Gold.PLP.part.repulsive>  (198) 
0.1684

>  <Gold.Protein.RotatedAtoms>  (198) 


>  <Gold.Protein.RotatedTorsions>  (198) 


>  <Gold.Protein.RotatedWaterAtoms>  (198) 


>  <Gold.Version>  (198) 
5.3.0

>  <PLP.Chemscore.CHOScore>  (198) 


>  <PLP.Chemscore.Hbond>  (198) 


>  <PLP.Chemscore.Internal.Correction>  (198) 


>  <PLP.Chemscore.Metal>  (198) 


>  <PLP.Fitness>  (198) 


>  <PLP.PLP>  (198) 


>  <PLP.ligand.clash>  (198) 


>  <PLP.ligand.torsion>  (198) 


>  <PLP.part.buried>  (198) 


>  <PLP.part.hbond>  (198) 


>  <PLP.part.metal>  (198) 


>  <PLP.part.nonpolar>  (198) 


>  <PLP.part.repulsive>  (198) 


>  <RMSD>  (198) 
0.30972197429

>  <Torsion>  (198) 
172.929186758

>  <TorsionO>  (198) 
24.4968065243

>  <TorsionR>  (198) 
162.574006718

>  <Version>  (198) 


>  <product>  (198) 
36|Compound_20|Compounds_3D_F|sdf|7|dock2|1

>  <rmsd>  (198) 
-1

$$$$
110|565385_49|Aromatic_carboxylic_acids_F|sdf|29|dock1|1
     RDKit          3D

 13 13  0  0  0  0  0  0  0  0999 V2000
  -10.1118  -17.9021   11.6320 C   0  0  0  0  0  0  0  0  0  0  0  0
   -9.7537  -16.5043   11.6546 N   0  0  0  0  0  0  0  0  0  0  0  0
   -8.4330  -16.1187   11.7930 C   0  0  0  0  0  0  0  0  0  0  0  0
   -7.5159  -16.9298   11.9008 O   0  0  0  0  0  0  0  0  0  0  0  0
   -8.1234  -14.6552   11.8105 C   0  0  0  0  0  0  0  0  0  0  0  0
   -9.0636  -13.6551   11.5375 C   0  0  0  0  0  0  0  0  0  0  0  0
   -8.6966  -12.3009   11.5726 C   0  0  0  0  0  0  0  0  0  0  0  0
   -7.3879  -11.9195   11.8809 C   0  0  0  0  0  0  0  0  0  0  0  0
   -6.4486  -12.9235   12.1551 C   0  0  0  0  0  0  0  0  0  0  0  0
   -6.8098  -14.2750   12.1207 C   0  0  0  0  0  0  0  0  0  0  0  0
   -4.6444  -12.5025   12.5849 Br  0  0  0  0  0  0  0  0  0  0  0  0
   -6.9476  -10.6242   11.9372 O   0  0  0  0  0  0  0  0  0  0  0  0
   -7.9020   -9.5910   11.7256 C   0  0  0  0  0  0  0  0  0  0  0  0
  1  2  1  0
  2  3  1  0
  3  4  2  0
  3  5  1  0
  5  6  2  0
  5 10  1  0
  6  7  1  0
  7  8  2  0
  8  9  1  0
  8 12  1  0
  9 10  2  0
  9 11  1  0
 12 13  1  0
M  END
>  <Gold.Gold.Protein.RotatedWaterAtoms>  (199) 


>  <Gold.Id.Protein>  (199) 


>  <Gold.PLP.Chemscore.CHOScore>  (199) 
0.0000

>  <Gold.PLP.Chemscore.Hbond>  (199) 
1.0000

>  <Gold.PLP.Chemscore.Internal.Correction>  (199) 
0.0000

>  <Gold.PLP.Chemscore.Metal>  (199) 
0.0000

>  <Gold.PLP.Fitness>  (199) 
43.9775

>  <Gold.PLP.PLP>  (199) 
-41.0517

>  <Gold.PLP.ligand.clash>  (199) 
0.0000

>  <Gold.PLP.ligand.torsion>  (199) 
0.0371

>  <Gold.PLP.part.buried>  (199) 
-3.7367

>  <Gold.PLP.part.hbond>  (199) 
-1.0000

>  <Gold.PLP.part.metal>  (199) 
0.0000

>  <Gold.PLP.part.nonpolar>  (199) 
-36.7483

>  <Gold.PLP.part.repulsive>  (199) 
0.4054

>  <Gold.Protein.RotatedAtoms>  (199) 


>  <Gold.Protein.RotatedTorsions>  (199) 


>  <Gold.Protein.RotatedWaterAtoms>  (199) 


>  <Gold.Version>  (199) 
5.3.0

>  <PLP.Chemscore.CHOScore>  (199) 


>  <PLP.Chemscore.Hbond>  (199) 


>  <PLP.Chemscore.Internal.Correction>  (199) 


>  <PLP.Chemscore.Metal>  (199) 


>  <PLP.Fitness>  (199) 


>  <PLP.PLP>  (199) 


>  <PLP.ligand.clash>  (199) 


>  <PLP.ligand.torsion>  (199) 


>  <PLP.part.buried>  (199) 


>  <PLP.part.hbond>  (199) 


>  <PLP.part.metal>  (199) 


>  <PLP.part.nonpolar>  (199) 


>  <PLP.part.repulsive>  (199) 


>  <RMSD>  (199) 
0.319376411377

>  <Torsion>  (199) 
169.460450784

>  <TorsionO>  (199) 
9.7963905484

>  <TorsionR>  (199) 
179.256841332

>  <Version>  (199) 


>  <product>  (199) 
36|Compound_20|Compounds_3D_F|sdf|7|dock2|1

>  <rmsd>  (199) 
-1

$$$$
128|137677_56|Aromatic_carboxylic_acids_F|sdf|33|dock1|1
     RDKit          3D

 11 11  0  0  0  0  0  0  0  0999 V2000
   -8.6116  -16.1544   11.8887 C   0  0  0  0  0  0  0  0  0  0  0  0
   -7.9978  -14.8484   11.9215 N   0  0  0  0  0  0  0  0  0  0  0  0
   -8.7778  -13.7008   11.8756 C   0  0  0  0  0  0  0  0  0  0  0  0
  -10.0002  -13.7896   11.8139 O   0  0  0  0  0  0  0  0  0  0  0  0
   -8.0808  -12.3609   11.9017 C   0  0  0  0  0  0  0  0  0  0  0  0
   -8.7916  -11.1851   11.5813 C   0  0  0  0  0  0  0  0  0  0  0  0
   -8.1781   -9.9267   11.5989 C   0  0  0  0  0  0  0  0  0  0  0  0
   -6.8391   -9.8089   11.9369 C   0  0  0  0  0  0  0  0  0  0  0  0
   -6.1124  -10.9502   12.2575 C   0  0  0  0  0  0  0  0  0  0  0  0
   -6.7171  -12.2196   12.2428 C   0  0  0  0  0  0  0  0  0  0  0  0
   -5.5419  -13.6455   12.7121 Br  0  0  0  0  0  0  0  0  0  0  0  0
  1  2  1  0
  2  3  1  0
  3  4  2  0
  3  5  1  0
  5  6  2  0
  5 10  1  0
  6  7  1  0
  7  8  2  0
  8  9  1  0
  9 10  2  0
 10 11  1  0
M  END
>  <Gold.Gold.Protein.RotatedWaterAtoms>  (200) 


>  <Gold.Id.Protein>  (200) 


>  <Gold.PLP.Chemscore.CHOScore>  (200) 
0.0000

>  <Gold.PLP.Chemscore.Hbond>  (200) 
1.0000

>  <Gold.PLP.Chemscore.Internal.Correction>  (200) 
0.0000

>  <Gold.PLP.Chemscore.Metal>  (200) 
0.0000

>  <Gold.PLP.Fitness>  (200) 
45.2899

>  <Gold.PLP.PLP>  (200) 
-42.4444

>  <Gold.PLP.ligand.clash>  (200) 
0.0000

>  <Gold.PLP.ligand.torsion>  (200) 
0.0772

>  <Gold.PLP.part.buried>  (200) 
-6.4690

>  <Gold.PLP.part.hbond>  (200) 
-0.6863

>  <Gold.PLP.part.metal>  (200) 
0.0000

>  <Gold.PLP.part.nonpolar>  (200) 
-34.8280

>  <Gold.PLP.part.repulsive>  (200) 
0.1963

>  <Gold.Protein.RotatedAtoms>  (200) 


>  <Gold.Protein.RotatedTorsions>  (200) 


>  <Gold.Protein.RotatedWaterAtoms>  (200) 


>  <Gold.Version>  (200) 
5.3.0

>  <PLP.Chemscore.CHOScore>  (200) 


>  <PLP.Chemscore.Hbond>  (200) 


>  <PLP.Chemscore.Internal.Correction>  (200) 


>  <PLP.Chemscore.Metal>  (200) 


>  <PLP.Fitness>  (200) 


>  <PLP.PLP>  (200) 


>  <PLP.ligand.clash>  (200) 


>  <PLP.ligand.torsion>  (200) 


>  <PLP.part.buried>  (200) 


>  <PLP.part.hbond>  (200) 


>  <PLP.part.metal>  (200) 


>  <PLP.part.nonpolar>  (200) 


>  <PLP.part.repulsive>  (200) 


>  <RMSD>  (200) 
0.428070490903

>  <Torsion>  (200) 
152.444048788

>  <TorsionO>  (200) 
39.0580871276

>  <TorsionR>  (200) 
168.497864085

>  <Version>  (200) 


>  <product>  (200) 
36|Compound_20|Compounds_3D_F|sdf|7|dock2|1

>  <rmsd>  (200) 
-1

$$$$
974|750794_1404|Aromatic_primary_amines_F|sdf|194|dock3|1
     RDKit          3D

 14 14  0  0  0  0  0  0  0  0999 V2000
  -13.6355  -18.1936    9.4145 C   0  0  0  0  0  0  0  0  0  0  0  0
  -13.2544  -19.4497   10.1732 C   0  0  0  0  0  0  0  0  0  0  0  0
  -11.8731  -19.3506   10.5383 O   0  0  0  0  0  0  0  0  0  0  0  0
  -11.6148  -18.5085   11.5823 C   0  0  0  0  0  0  0  0  0  0  0  0
  -12.3947  -18.2810   12.5004 O   0  0  0  0  0  0  0  0  0  0  0  0
  -10.3031  -17.8985   11.4902 C   0  0  0  0  0  0  0  0  0  0  0  0
   -9.1673  -18.4974   10.9931 C   0  0  0  0  0  0  0  0  0  0  0  0
   -8.1448  -17.6055   11.0758 O   0  0  0  0  0  0  0  0  0  0  0  0
   -8.7110  -16.4917   11.6237 C   0  0  0  0  0  0  0  0  0  0  0  0
   -9.9933  -16.6110   11.8915 N   0  0  0  0  0  0  0  0  0  0  0  0
   -7.9611  -15.3718   11.8549 N   0  0  0  0  0  0  0  0  0  0  0  0
   -8.5046  -14.1249   12.0676 C   0  0  0  0  0  0  0  0  0  0  0  0
   -9.6950  -13.8313   12.1035 O   0  0  0  0  0  0  0  0  0  0  0  0
   -7.4448  -13.0785   12.3021 C   0  0  0  0  0  0  0  0  0  0  0  0
  1  2  1  0
  2  3  1  0
  3  4  1  0
  4  5  2  0
  4  6  1  0
  6  7  2  0
  6 10  1  0
  7  8  1  0
  8  9  1  0
  9 10  2  0
  9 11  1  0
 11 12  1  0
 12 13  2  0
 12 14  1  0
M  END
>  <Gold.Gold.Protein.RotatedWaterAtoms>  (201) 


>  <Gold.Id.Protein>  (201) 


>  <Gold.PLP.Chemscore.CHOScore>  (201) 
0.0000

>  <Gold.PLP.Chemscore.Hbond>  (201) 
2.0000

>  <Gold.PLP.Chemscore.Internal.Correction>  (201) 
0.0053

>  <Gold.PLP.Chemscore.Metal>  (201) 
0.0000

>  <Gold.PLP.Fitness>  (201) 
36.8047

>  <Gold.PLP.PLP>  (201) 
-32.7996

>  <Gold.PLP.ligand.clash>  (201) 
0.0000

>  <Gold.PLP.ligand.torsion>  (201) 
1.0001

>  <Gold.PLP.part.buried>  (201) 
-6.5206

>  <Gold.PLP.part.hbond>  (201) 
-2.9156

>  <Gold.PLP.part.metal>  (201) 
0.0000

>  <Gold.PLP.part.nonpolar>  (201) 
-23.4080

>  <Gold.PLP.part.repulsive>  (201) 
0.3100

>  <Gold.Protein.RotatedAtoms>  (201) 


>  <Gold.Protein.RotatedTorsions>  (201) 


>  <Gold.Protein.RotatedWaterAtoms>  (201) 


>  <Gold.Version>  (201) 
5.3.0

>  <PLP.Chemscore.CHOScore>  (201) 


>  <PLP.Chemscore.Hbond>  (201) 


>  <PLP.Chemscore.Internal.Correction>  (201) 


>  <PLP.Chemscore.Metal>  (201) 


>  <PLP.Fitness>  (201) 


>  <PLP.PLP>  (201) 


>  <PLP.ligand.clash>  (201) 


>  <PLP.ligand.torsion>  (201) 


>  <PLP.part.buried>  (201) 


>  <PLP.part.hbond>  (201) 


>  <PLP.part.metal>  (201) 


>  <PLP.part.nonpolar>  (201) 


>  <PLP.part.repulsive>  (201) 


>  <RMSD>  (201) 
0.499949349045

>  <Torsion>  (201) 
159.973716791

>  <TorsionO>  (201) 
19.1052109979

>  <TorsionR>  (201) 
179.078927789

>  <Version>  (201) 


>  <product>  (201) 
36|Compound_20|Compounds_3D_F|sdf|7|dock2|1

>  <rmsd>  (201) 
-1

$$$$
1884|M3006_1781|Aromatic_primary_amines_F|sdf|361|dock3|1
     RDKit          3D

 31 34  0  0  0  0  0  0  0  0999 V2000
  -14.4210  -19.8971    8.7934 C   0  0  0  0  0  0  0  0  0  0  0  0
  -13.9762  -19.4927   10.1894 C   0  0  0  0  0  0  0  0  0  0  0  0
  -14.1356  -20.6409   11.1817 C   0  0  0  0  0  0  0  0  0  0  0  0
  -13.5197  -20.3070   12.5189 C   0  0  0  0  0  0  0  0  0  0  0  0
  -12.9307  -19.2724   12.7954 O   0  0  0  0  0  0  0  0  0  0  0  0
  -13.7110  -21.3451   13.3845 O   0  0  0  0  0  0  0  0  0  0  0  0
  -12.9425  -21.2698   14.5900 C   0  0  0  0  0  0  0  0  0  0  0  0
  -12.8849  -22.6189   15.2889 C   0  0  0  0  0  0  0  0  0  0  0  0
  -11.6552  -22.4172   16.1494 C   0  0  0  0  0  0  0  0  0  0  0  0
  -11.2420  -23.7410   16.7624 C   0  0  0  0  0  0  0  0  0  0  0  0
  -12.3024  -24.2223   17.5862 O   0  0  0  0  0  0  0  0  0  0  0  0
  -13.7888  -24.3384   16.9603 P   0  0  0  0  0  0  0  0  0  0  0  0
  -14.8775  -24.6795   17.9243 O   0  0  0  0  0  0  0  0  0  0  0  0
  -13.9839  -22.9641   16.1174 O   0  0  0  0  0  0  0  0  0  0  0  0
  -13.5991  -25.4435   15.8075 O   0  0  0  0  0  0  0  0  0  0  0  0
  -10.6922  -21.8161   15.2889 O   0  0  0  0  0  0  0  0  0  0  0  0
  -11.4338  -20.9664   14.3653 C   0  0  0  0  0  0  0  0  0  0  0  0
  -10.9052  -21.2017   13.0342 N   0  0  0  0  0  0  0  0  0  0  0  0
  -10.7814  -22.4114   12.4013 C   0  0  0  0  0  0  0  0  0  0  0  0
  -10.2640  -22.2918   11.1953 N   0  0  0  0  0  0  0  0  0  0  0  0
  -10.0274  -20.9476   11.0424 C   0  0  0  0  0  0  0  0  0  0  0  0
  -10.4203  -20.2487   12.1733 C   0  0  0  0  0  0  0  0  0  0  0  0
  -10.3338  -18.9216   12.3641 N   0  0  0  0  0  0  0  0  0  0  0  0
   -9.8057  -18.2730   11.3024 C   0  0  0  0  0  0  0  0  0  0  0  0
   -9.3808  -18.8370   10.1545 N   0  0  0  0  0  0  0  0  0  0  0  0
   -9.4895  -20.1691   10.0244 C   0  0  0  0  0  0  0  0  0  0  0  0
   -9.0330  -20.6622    8.8349 O   0  0  0  0  0  0  0  0  0  0  0  0
   -9.7222  -16.8901   11.4793 N   0  0  0  0  0  0  0  0  0  0  0  0
   -8.5796  -16.1798   11.7761 C   0  0  0  0  0  0  0  0  0  0  0  0
   -7.4445  -16.6221   11.9131 O   0  0  0  0  0  0  0  0  0  0  0  0
   -8.8524  -14.7024   11.8973 C   0  0  0  0  0  0  0  0  0  0  0  0
  1  2  1  0
  2  3  1  0
  3  4  1  0
  4  5  2  0
  4  6  1  0
  6  7  1  0
  7  8  1  0
  7 17  1  0
  8  9  1  0
  8 14  1  0
  9 10  1  0
  9 16  1  0
 10 11  1  0
 11 12  1  0
 12 13  2  0
 12 14  1  0
 12 15  1  0
 16 17  1  0
 17 18  1  0
 18 19  1  0
 18 22  1  0
 19 20  2  0
 20 21  1  0
 21 22  2  0
 21 26  1  0
 22 23  1  0
 23 24  2  0
 24 25  1  0
 24 28  1  0
 25 26  2  0
 26 27  1  0
 28 29  1  0
 29 30  2  0
 29 31  1  0
M  END
>  <Gold.Gold.Protein.RotatedWaterAtoms>  (202) 


>  <Gold.Id.Protein>  (202) 


>  <Gold.PLP.Chemscore.CHOScore>  (202) 
0.0000

>  <Gold.PLP.Chemscore.Hbond>  (202) 
1.2080

>  <Gold.PLP.Chemscore.Internal.Correction>  (202) 
0.1232

>  <Gold.PLP.Chemscore.Metal>  (202) 
0.0000

>  <Gold.PLP.Fitness>  (202) 
47.7145

>  <Gold.PLP.PLP>  (202) 
-46.0218

>  <Gold.PLP.ligand.clash>  (202) 
0.0000

>  <Gold.PLP.ligand.torsion>  (202) 
1.0272

>  <Gold.PLP.part.buried>  (202) 
-2.2958

>  <Gold.PLP.part.hbond>  (202) 
-4.0214

>  <Gold.PLP.part.metal>  (202) 
0.0000

>  <Gold.PLP.part.nonpolar>  (202) 
-41.4699

>  <Gold.PLP.part.repulsive>  (202) 
0.9524

>  <Gold.Protein.RotatedAtoms>  (202) 


>  <Gold.Protein.RotatedTorsions>  (202) 


>  <Gold.Protein.RotatedWaterAtoms>  (202) 


>  <Gold.Version>  (202) 
5.3.0

>  <PLP.Chemscore.CHOScore>  (202) 


>  <PLP.Chemscore.Hbond>  (202) 


>  <PLP.Chemscore.Internal.Correction>  (202) 


>  <PLP.Chemscore.Metal>  (202) 


>  <PLP.Fitness>  (202) 


>  <PLP.PLP>  (202) 


>  <PLP.ligand.clash>  (202) 


>  <PLP.ligand.torsion>  (202) 


>  <PLP.part.buried>  (202) 


>  <PLP.part.hbond>  (202) 


>  <PLP.part.metal>  (202) 


>  <PLP.part.nonpolar>  (202) 


>  <PLP.part.repulsive>  (202) 


>  <RMSD>  (202) 
0.291955871297

>  <Torsion>  (202) 
171.923704933

>  <TorsionO>  (202) 
6.03609353985

>  <TorsionR>  (202) 
177.959798473

>  <Version>  (202) 


>  <product>  (202) 
36|Compound_20|Compounds_3D_F|sdf|7|dock2|1

>  <rmsd>  (202) 
-1

$$$$
193|32168_281|Aromatic_primary_amines_F|sdf|39|dock6|1
     RDKit          3D

 23 25  0  0  0  0  0  0  0  0999 V2000
   -7.8439  -12.1461   11.8919 C   0  0  0  0  0  0  0  0  0  0  0  0
   -8.5691  -13.4472   11.6781 C   0  0  0  0  0  0  0  0  0  0  0  0
   -9.7886  -13.4981   11.5208 O   0  0  0  0  0  0  0  0  0  0  0  0
   -7.7264  -14.5390   11.7020 N   0  0  0  0  0  0  0  0  0  0  0  0
   -8.1889  -15.8197   11.5323 C   0  0  0  0  0  0  0  0  0  0  0  0
   -9.4747  -16.2039   11.8163 N   0  0  0  0  0  0  0  0  0  0  0  0
   -9.5964  -17.5375   11.5379 C   0  0  0  0  0  0  0  0  0  0  0  0
  -10.6643  -18.4283   11.6415 C   0  0  0  0  0  0  0  0  0  0  0  0
  -10.4051  -19.7586   11.2778 C   0  0  0  0  0  0  0  0  0  0  0  0
   -9.1530  -20.1507   10.7795 C   0  0  0  0  0  0  0  0  0  0  0  0
   -8.1017  -19.2294   10.6839 C   0  0  0  0  0  0  0  0  0  0  0  0
   -8.3349  -17.9032   11.0783 C   0  0  0  0  0  0  0  0  0  0  0  0
   -7.4773  -16.8281   11.0838 N   0  0  0  0  0  0  0  0  0  0  0  0
   -8.8530  -21.7658   10.2429 Cl  0  0  0  0  0  0  0  0  0  0  0  0
  -11.4669  -20.6323   11.3734 O   0  0  0  0  0  0  0  0  0  0  0  0
  -12.5262  -20.4408   10.5053 C   0  0  0  0  0  0  0  0  0  0  0  0
  -13.3188  -19.2846   10.5304 C   0  0  0  0  0  0  0  0  0  0  0  0
  -14.3665  -19.1344    9.6224 C   0  0  0  0  0  0  0  0  0  0  0  0
  -14.6219  -20.1279    8.6796 C   0  0  0  0  0  0  0  0  0  0  0  0
  -13.8238  -21.2756    8.6345 C   0  0  0  0  0  0  0  0  0  0  0  0
  -12.7674  -21.4342    9.5416 C   0  0  0  0  0  0  0  0  0  0  0  0
  -11.7588  -22.8458    9.4996 Cl  0  0  0  0  0  0  0  0  0  0  0  0
  -14.1988  -22.4584    7.4296 Cl  0  0  0  0  0  0  0  0  0  0  0  0
  1  2  1  0
  2  3  2  0
  2  4  1  0
  4  5  1  0
  5  6  1  0
  5 13  2  0
  6  7  1  0
  7  8  2  0
  7 12  1  0
  8  9  1  0
  9 10  2  0
  9 15  1  0
 10 11  1  0
 10 14  1  0
 11 12  2  0
 12 13  1  0
 15 16  1  0
 16 17  2  0
 16 21  1  0
 17 18  1  0
 18 19  2  0
 19 20  1  0
 20 21  2  0
 20 23  1  0
 21 22  1  0
M  END
>  <Gold.Gold.Protein.RotatedWaterAtoms>  (203) 


>  <Gold.Id.Protein>  (203) 


>  <Gold.PLP.Chemscore.CHOScore>  (203) 
0.0000

>  <Gold.PLP.Chemscore.Hbond>  (203) 
1.0000

>  <Gold.PLP.Chemscore.Internal.Correction>  (203) 
0.0086

>  <Gold.PLP.Chemscore.Metal>  (203) 
0.0000

>  <Gold.PLP.Fitness>  (203) 
50.7139

>  <Gold.PLP.PLP>  (203) 
-48.1706

>  <Gold.PLP.ligand.clash>  (203) 
0.0000

>  <Gold.PLP.ligand.torsion>  (203) 
0.2327

>  <Gold.PLP.part.buried>  (203) 
-6.5205

>  <Gold.PLP.part.hbond>  (203) 
-2.0000

>  <Gold.PLP.part.metal>  (203) 
0.0000

>  <Gold.PLP.part.nonpolar>  (203) 
-39.3857

>  <Gold.PLP.part.repulsive>  (203) 
0.3298

>  <Gold.Protein.RotatedAtoms>  (203) 


>  <Gold.Protein.RotatedTorsions>  (203) 


>  <Gold.Protein.RotatedWaterAtoms>  (203) 


>  <Gold.Version>  (203) 
5.3.0

>  <PLP.Chemscore.CHOScore>  (203) 


>  <PLP.Chemscore.Hbond>  (203) 


>  <PLP.Chemscore.Internal.Correction>  (203) 


>  <PLP.Chemscore.Metal>  (203) 


>  <PLP.Fitness>  (203) 


>  <PLP.PLP>  (203) 


>  <PLP.ligand.clash>  (203) 


>  <PLP.ligand.torsion>  (203) 


>  <PLP.part.buried>  (203) 


>  <PLP.part.hbond>  (203) 


>  <PLP.part.metal>  (203) 


>  <PLP.part.nonpolar>  (203) 


>  <PLP.part.repulsive>  (203) 


>  <RMSD>  (203) 
0.439733510035

>  <Torsion>  (203) 
177.672185574

>  <TorsionO>  (203) 
4.31728583372

>  <TorsionR>  (203) 
173.35489974

>  <Version>  (203) 


>  <product>  (203) 
36|Compound_20|Compounds_3D_F|sdf|7|dock2|1

>  <rmsd>  (203) 
-1

$$$$
24|Compound_12|Compounds_3D_F|sdf|5|dock5|1
     RDKit          3D

  6  5  0  0  0  0  0  0  0  0999 V2000
   -3.9335  -16.8156   11.3967 B   0  0  0  0  0  0  0  0  0  0  0  0
   -4.9568  -15.8976   12.1543 C   0  0  0  0  0  0  0  0  0  0  0  0
   -5.8452  -16.3942   12.8134 O   0  0  0  0  0  0  0  0  0  0  0  0
   -4.8479  -14.5564   12.0720 N   0  0  0  0  0  0  0  0  0  0  0  0
   -5.8034  -13.6996   12.7790 C   0  0  0  0  0  0  0  0  0  0  0  0
   -5.4752  -12.2314   12.4998 C   0  0  0  0  0  0  0  0  0  0  0  0
  1  2  1  0
  2  3  2  0
  2  4  1  0
  4  5  1  0
  5  6  1  0
M  END
>  <Gold.Gold.Protein.RotatedWaterAtoms>  (204) 


>  <Gold.Id.Protein>  (204) 


>  <Gold.PLP.Chemscore.CHOScore>  (204) 
0.0000

>  <Gold.PLP.Chemscore.Hbond>  (204) 
1.0000

>  <Gold.PLP.Chemscore.Internal.Correction>  (204) 
0.0000

>  <Gold.PLP.Chemscore.Metal>  (204) 
0.0000

>  <Gold.PLP.Fitness>  (204) 
24.5897

>  <Gold.PLP.PLP>  (204) 
-21.5909

>  <Gold.PLP.ligand.clash>  (204) 
0.0000

>  <Gold.PLP.ligand.torsion>  (204) 
0.0006

>  <Gold.PLP.part.buried>  (204) 
-4.3427

>  <Gold.PLP.part.hbond>  (204) 
-2.0000

>  <Gold.PLP.part.metal>  (204) 
0.0000

>  <Gold.PLP.part.nonpolar>  (204) 
-15.1266

>  <Gold.PLP.part.repulsive>  (204) 
0.1752

>  <Gold.Protein.RotatedAtoms>  (204) 


>  <Gold.Protein.RotatedTorsions>  (204) 


>  <Gold.Protein.RotatedWaterAtoms>  (204) 


>  <Gold.Version>  (204) 
5.3.0

>  <PLP.Chemscore.CHOScore>  (204) 


>  <PLP.Chemscore.Hbond>  (204) 


>  <PLP.Chemscore.Internal.Correction>  (204) 


>  <PLP.Chemscore.Metal>  (204) 


>  <PLP.Fitness>  (204) 


>  <PLP.PLP>  (204) 


>  <PLP.ligand.clash>  (204) 


>  <PLP.ligand.torsion>  (204) 


>  <PLP.part.buried>  (204) 


>  <PLP.part.hbond>  (204) 


>  <PLP.part.metal>  (204) 


>  <PLP.part.nonpolar>  (204) 


>  <PLP.part.repulsive>  (204) 


>  <Version>  (204) 


$$$$
94|664022_40|Aromatic_carboxylic_acids_F|sdf|24|dock1|1
     RDKit          3D

 12 12  0  0  0  0  0  0  0  0999 V2000
   -8.2596  -17.1212   11.4595 C   0  0  0  0  0  0  0  0  0  0  0  0
   -7.6366  -15.8367   11.6688 N   0  0  0  0  0  0  0  0  0  0  0  0
   -8.3409  -14.6553   11.5719 C   0  0  0  0  0  0  0  0  0  0  0  0
   -9.5296  -14.5547   11.2978 O   0  0  0  0  0  0  0  0  0  0  0  0
   -7.5420  -13.4431   11.8503 C   0  0  0  0  0  0  0  0  0  0  0  0
   -8.1627  -12.1983   11.6738 C   0  0  0  0  0  0  0  0  0  0  0  0
   -7.4390  -11.0301   11.9055 C   0  0  0  0  0  0  0  0  0  0  0  0
   -6.1069  -11.0910   12.3103 C   0  0  0  0  0  0  0  0  0  0  0  0
   -5.4897  -12.3324   12.4853 C   0  0  0  0  0  0  0  0  0  0  0  0
   -6.2035  -13.5136   12.2549 C   0  0  0  0  0  0  0  0  0  0  0  0
   -5.3062  -15.1564   12.5638 Br  0  0  0  0  0  0  0  0  0  0  0  0
   -8.1960   -9.5005   11.6887 Cl  0  0  0  0  0  0  0  0  0  0  0  0
  1  2  1  0
  2  3  1  0
  3  4  2  0
  3  5  1  0
  5  6  2  0
  5 10  1  0
  6  7  1  0
  7  8  2  0
  7 12  1  0
  8  9  1  0
  9 10  2  0
 10 11  1  0
M  END
>  <Gold.Gold.Protein.RotatedWaterAtoms>  (205) 


>  <Gold.Id.Protein>  (205) 


>  <Gold.PLP.Chemscore.CHOScore>  (205) 
0.0000

>  <Gold.PLP.Chemscore.Hbond>  (205) 
0.4160

>  <Gold.PLP.Chemscore.Internal.Correction>  (205) 
0.0004

>  <Gold.PLP.Chemscore.Metal>  (205) 
0.0000

>  <Gold.PLP.Fitness>  (205) 
48.9046

>  <Gold.PLP.PLP>  (205) 
-47.6744

>  <Gold.PLP.ligand.clash>  (205) 
0.0000

>  <Gold.PLP.ligand.torsion>  (205) 
0.0091

>  <Gold.PLP.part.buried>  (205) 
-7.3578

>  <Gold.PLP.part.hbond>  (205) 
-0.5127

>  <Gold.PLP.part.metal>  (205) 
0.0000

>  <Gold.PLP.part.nonpolar>  (205) 
-40.3098

>  <Gold.PLP.part.repulsive>  (205) 
0.1684

>  <Gold.Protein.RotatedAtoms>  (205) 


>  <Gold.Protein.RotatedTorsions>  (205) 


>  <Gold.Protein.RotatedWaterAtoms>  (205) 


>  <Gold.Version>  (205) 
5.3.0

>  <PLP.Chemscore.CHOScore>  (205) 


>  <PLP.Chemscore.Hbond>  (205) 


>  <PLP.Chemscore.Internal.Correction>  (205) 


>  <PLP.Chemscore.Metal>  (205) 


>  <PLP.Fitness>  (205) 


>  <PLP.PLP>  (205) 


>  <PLP.ligand.clash>  (205) 


>  <PLP.ligand.torsion>  (205) 


>  <PLP.part.buried>  (205) 


>  <PLP.part.hbond>  (205) 


>  <PLP.part.metal>  (205) 


>  <PLP.part.nonpolar>  (205) 


>  <PLP.part.repulsive>  (205) 


>  <RMSD>  (205) 
0.30972197429

>  <Torsion>  (205) 
172.929186758

>  <TorsionO>  (205) 
24.4968065243

>  <TorsionR>  (205) 
162.574006718

>  <Version>  (205) 


>  <product>  (205) 
24|Compound_12|Compounds_3D_F|sdf|5|dock5|1

>  <rmsd>  (205) 
-1

$$$$
110|565385_49|Aromatic_carboxylic_acids_F|sdf|29|dock1|1
     RDKit          3D

 13 13  0  0  0  0  0  0  0  0999 V2000
  -10.1118  -17.9021   11.6320 C   0  0  0  0  0  0  0  0  0  0  0  0
   -9.7537  -16.5043   11.6546 N   0  0  0  0  0  0  0  0  0  0  0  0
   -8.4330  -16.1187   11.7930 C   0  0  0  0  0  0  0  0  0  0  0  0
   -7.5159  -16.9298   11.9008 O   0  0  0  0  0  0  0  0  0  0  0  0
   -8.1234  -14.6552   11.8105 C   0  0  0  0  0  0  0  0  0  0  0  0
   -9.0636  -13.6551   11.5375 C   0  0  0  0  0  0  0  0  0  0  0  0
   -8.6966  -12.3009   11.5726 C   0  0  0  0  0  0  0  0  0  0  0  0
   -7.3879  -11.9195   11.8809 C   0  0  0  0  0  0  0  0  0  0  0  0
   -6.4486  -12.9235   12.1551 C   0  0  0  0  0  0  0  0  0  0  0  0
   -6.8098  -14.2750   12.1207 C   0  0  0  0  0  0  0  0  0  0  0  0
   -4.6444  -12.5025   12.5849 Br  0  0  0  0  0  0  0  0  0  0  0  0
   -6.9476  -10.6242   11.9372 O   0  0  0  0  0  0  0  0  0  0  0  0
   -7.9020   -9.5910   11.7256 C   0  0  0  0  0  0  0  0  0  0  0  0
  1  2  1  0
  2  3  1  0
  3  4  2  0
  3  5  1  0
  5  6  2  0
  5 10  1  0
  6  7  1  0
  7  8  2  0
  8  9  1  0
  8 12  1  0
  9 10  2  0
  9 11  1  0
 12 13  1  0
M  END
>  <Gold.Gold.Protein.RotatedWaterAtoms>  (206) 


>  <Gold.Id.Protein>  (206) 


>  <Gold.PLP.Chemscore.CHOScore>  (206) 
0.0000

>  <Gold.PLP.Chemscore.Hbond>  (206) 
1.0000

>  <Gold.PLP.Chemscore.Internal.Correction>  (206) 
0.0000

>  <Gold.PLP.Chemscore.Metal>  (206) 
0.0000

>  <Gold.PLP.Fitness>  (206) 
43.9775

>  <Gold.PLP.PLP>  (206) 
-41.0517

>  <Gold.PLP.ligand.clash>  (206) 
0.0000

>  <Gold.PLP.ligand.torsion>  (206) 
0.0371

>  <Gold.PLP.part.buried>  (206) 
-3.7367

>  <Gold.PLP.part.hbond>  (206) 
-1.0000

>  <Gold.PLP.part.metal>  (206) 
0.0000

>  <Gold.PLP.part.nonpolar>  (206) 
-36.7483

>  <Gold.PLP.part.repulsive>  (206) 
0.4054

>  <Gold.Protein.RotatedAtoms>  (206) 


>  <Gold.Protein.RotatedTorsions>  (206) 


>  <Gold.Protein.RotatedWaterAtoms>  (206) 


>  <Gold.Version>  (206) 
5.3.0

>  <PLP.Chemscore.CHOScore>  (206) 


>  <PLP.Chemscore.Hbond>  (206) 


>  <PLP.Chemscore.Internal.Correction>  (206) 


>  <PLP.Chemscore.Metal>  (206) 


>  <PLP.Fitness>  (206) 


>  <PLP.PLP>  (206) 


>  <PLP.ligand.clash>  (206) 


>  <PLP.ligand.torsion>  (206) 


>  <PLP.part.buried>  (206) 


>  <PLP.part.hbond>  (206) 


>  <PLP.part.metal>  (206) 


>  <PLP.part.nonpolar>  (206) 


>  <PLP.part.repulsive>  (206) 


>  <RMSD>  (206) 
0.319376411377

>  <Torsion>  (206) 
169.460450784

>  <TorsionO>  (206) 
9.7963905484

>  <TorsionR>  (206) 
179.256841332

>  <Version>  (206) 


>  <product>  (206) 
24|Compound_12|Compounds_3D_F|sdf|5|dock5|1

>  <rmsd>  (206) 
-1

$$$$
128|137677_56|Aromatic_carboxylic_acids_F|sdf|33|dock1|1
     RDKit          3D

 11 11  0  0  0  0  0  0  0  0999 V2000
   -8.6116  -16.1544   11.8887 C   0  0  0  0  0  0  0  0  0  0  0  0
   -7.9978  -14.8484   11.9215 N   0  0  0  0  0  0  0  0  0  0  0  0
   -8.7778  -13.7008   11.8756 C   0  0  0  0  0  0  0  0  0  0  0  0
  -10.0002  -13.7896   11.8139 O   0  0  0  0  0  0  0  0  0  0  0  0
   -8.0808  -12.3609   11.9017 C   0  0  0  0  0  0  0  0  0  0  0  0
   -8.7916  -11.1851   11.5813 C   0  0  0  0  0  0  0  0  0  0  0  0
   -8.1781   -9.9267   11.5989 C   0  0  0  0  0  0  0  0  0  0  0  0
   -6.8391   -9.8089   11.9369 C   0  0  0  0  0  0  0  0  0  0  0  0
   -6.1124  -10.9502   12.2575 C   0  0  0  0  0  0  0  0  0  0  0  0
   -6.7171  -12.2196   12.2428 C   0  0  0  0  0  0  0  0  0  0  0  0
   -5.5419  -13.6455   12.7121 Br  0  0  0  0  0  0  0  0  0  0  0  0
  1  2  1  0
  2  3  1  0
  3  4  2  0
  3  5  1  0
  5  6  2  0
  5 10  1  0
  6  7  1  0
  7  8  2  0
  8  9  1  0
  9 10  2  0
 10 11  1  0
M  END
>  <Gold.Gold.Protein.RotatedWaterAtoms>  (207) 


>  <Gold.Id.Protein>  (207) 


>  <Gold.PLP.Chemscore.CHOScore>  (207) 
0.0000

>  <Gold.PLP.Chemscore.Hbond>  (207) 
1.0000

>  <Gold.PLP.Chemscore.Internal.Correction>  (207) 
0.0000

>  <Gold.PLP.Chemscore.Metal>  (207) 
0.0000

>  <Gold.PLP.Fitness>  (207) 
45.2899

>  <Gold.PLP.PLP>  (207) 
-42.4444

>  <Gold.PLP.ligand.clash>  (207) 
0.0000

>  <Gold.PLP.ligand.torsion>  (207) 
0.0772

>  <Gold.PLP.part.buried>  (207) 
-6.4690

>  <Gold.PLP.part.hbond>  (207) 
-0.6863

>  <Gold.PLP.part.metal>  (207) 
0.0000

>  <Gold.PLP.part.nonpolar>  (207) 
-34.8280

>  <Gold.PLP.part.repulsive>  (207) 
0.1963

>  <Gold.Protein.RotatedAtoms>  (207) 


>  <Gold.Protein.RotatedTorsions>  (207) 


>  <Gold.Protein.RotatedWaterAtoms>  (207) 


>  <Gold.Version>  (207) 
5.3.0

>  <PLP.Chemscore.CHOScore>  (207) 


>  <PLP.Chemscore.Hbond>  (207) 


>  <PLP.Chemscore.Internal.Correction>  (207) 


>  <PLP.Chemscore.Metal>  (207) 


>  <PLP.Fitness>  (207) 


>  <PLP.PLP>  (207) 


>  <PLP.ligand.clash>  (207) 


>  <PLP.ligand.torsion>  (207) 


>  <PLP.part.buried>  (207) 


>  <PLP.part.hbond>  (207) 


>  <PLP.part.metal>  (207) 


>  <PLP.part.nonpolar>  (207) 


>  <PLP.part.repulsive>  (207) 


>  <RMSD>  (207) 
0.428070490903

>  <Torsion>  (207) 
152.444048788

>  <TorsionO>  (207) 
39.0580871276

>  <TorsionR>  (207) 
168.497864085

>  <Version>  (207) 


>  <product>  (207) 
24|Compound_12|Compounds_3D_F|sdf|5|dock5|1

>  <rmsd>  (207) 
-1

$$$$
974|750794_1404|Aromatic_primary_amines_F|sdf|194|dock3|1
     RDKit          3D

 14 14  0  0  0  0  0  0  0  0999 V2000
  -13.6355  -18.1936    9.4145 C   0  0  0  0  0  0  0  0  0  0  0  0
  -13.2544  -19.4497   10.1732 C   0  0  0  0  0  0  0  0  0  0  0  0
  -11.8731  -19.3506   10.5383 O   0  0  0  0  0  0  0  0  0  0  0  0
  -11.6148  -18.5085   11.5823 C   0  0  0  0  0  0  0  0  0  0  0  0
  -12.3947  -18.2810   12.5004 O   0  0  0  0  0  0  0  0  0  0  0  0
  -10.3031  -17.8985   11.4902 C   0  0  0  0  0  0  0  0  0  0  0  0
   -9.1673  -18.4974   10.9931 C   0  0  0  0  0  0  0  0  0  0  0  0
   -8.1448  -17.6055   11.0758 O   0  0  0  0  0  0  0  0  0  0  0  0
   -8.7110  -16.4917   11.6237 C   0  0  0  0  0  0  0  0  0  0  0  0
   -9.9933  -16.6110   11.8915 N   0  0  0  0  0  0  0  0  0  0  0  0
   -7.9611  -15.3718   11.8549 N   0  0  0  0  0  0  0  0  0  0  0  0
   -8.5046  -14.1249   12.0676 C   0  0  0  0  0  0  0  0  0  0  0  0
   -9.6950  -13.8313   12.1035 O   0  0  0  0  0  0  0  0  0  0  0  0
   -7.4448  -13.0785   12.3021 C   0  0  0  0  0  0  0  0  0  0  0  0
  1  2  1  0
  2  3  1  0
  3  4  1  0
  4  5  2  0
  4  6  1  0
  6  7  2  0
  6 10  1  0
  7  8  1  0
  8  9  1  0
  9 10  2  0
  9 11  1  0
 11 12  1  0
 12 13  2  0
 12 14  1  0
M  END
>  <Gold.Gold.Protein.RotatedWaterAtoms>  (208) 


>  <Gold.Id.Protein>  (208) 


>  <Gold.PLP.Chemscore.CHOScore>  (208) 
0.0000

>  <Gold.PLP.Chemscore.Hbond>  (208) 
2.0000

>  <Gold.PLP.Chemscore.Internal.Correction>  (208) 
0.0053

>  <Gold.PLP.Chemscore.Metal>  (208) 
0.0000

>  <Gold.PLP.Fitness>  (208) 
36.8047

>  <Gold.PLP.PLP>  (208) 
-32.7996

>  <Gold.PLP.ligand.clash>  (208) 
0.0000

>  <Gold.PLP.ligand.torsion>  (208) 
1.0001

>  <Gold.PLP.part.buried>  (208) 
-6.5206

>  <Gold.PLP.part.hbond>  (208) 
-2.9156

>  <Gold.PLP.part.metal>  (208) 
0.0000

>  <Gold.PLP.part.nonpolar>  (208) 
-23.4080

>  <Gold.PLP.part.repulsive>  (208) 
0.3100

>  <Gold.Protein.RotatedAtoms>  (208) 


>  <Gold.Protein.RotatedTorsions>  (208) 


>  <Gold.Protein.RotatedWaterAtoms>  (208) 


>  <Gold.Version>  (208) 
5.3.0

>  <PLP.Chemscore.CHOScore>  (208) 


>  <PLP.Chemscore.Hbond>  (208) 


>  <PLP.Chemscore.Internal.Correction>  (208) 


>  <PLP.Chemscore.Metal>  (208) 


>  <PLP.Fitness>  (208) 


>  <PLP.PLP>  (208) 


>  <PLP.ligand.clash>  (208) 


>  <PLP.ligand.torsion>  (208) 


>  <PLP.part.buried>  (208) 


>  <PLP.part.hbond>  (208) 


>  <PLP.part.metal>  (208) 


>  <PLP.part.nonpolar>  (208) 


>  <PLP.part.repulsive>  (208) 


>  <RMSD>  (208) 
0.499949349045

>  <Torsion>  (208) 
159.973716791

>  <TorsionO>  (208) 
19.1052109979

>  <TorsionR>  (208) 
179.078927789

>  <Version>  (208) 


>  <product>  (208) 
24|Compound_12|Compounds_3D_F|sdf|5|dock5|1

>  <rmsd>  (208) 
-1

$$$$
1884|M3006_1781|Aromatic_primary_amines_F|sdf|361|dock3|1
     RDKit          3D

 31 34  0  0  0  0  0  0  0  0999 V2000
  -14.4210  -19.8971    8.7934 C   0  0  0  0  0  0  0  0  0  0  0  0
  -13.9762  -19.4927   10.1894 C   0  0  0  0  0  0  0  0  0  0  0  0
  -14.1356  -20.6409   11.1817 C   0  0  0  0  0  0  0  0  0  0  0  0
  -13.5197  -20.3070   12.5189 C   0  0  0  0  0  0  0  0  0  0  0  0
  -12.9307  -19.2724   12.7954 O   0  0  0  0  0  0  0  0  0  0  0  0
  -13.7110  -21.3451   13.3845 O   0  0  0  0  0  0  0  0  0  0  0  0
  -12.9425  -21.2698   14.5900 C   0  0  0  0  0  0  0  0  0  0  0  0
  -12.8849  -22.6189   15.2889 C   0  0  0  0  0  0  0  0  0  0  0  0
  -11.6552  -22.4172   16.1494 C   0  0  0  0  0  0  0  0  0  0  0  0
  -11.2420  -23.7410   16.7624 C   0  0  0  0  0  0  0  0  0  0  0  0
  -12.3024  -24.2223   17.5862 O   0  0  0  0  0  0  0  0  0  0  0  0
  -13.7888  -24.3384   16.9603 P   0  0  0  0  0  0  0  0  0  0  0  0
  -14.8775  -24.6795   17.9243 O   0  0  0  0  0  0  0  0  0  0  0  0
  -13.9839  -22.9641   16.1174 O   0  0  0  0  0  0  0  0  0  0  0  0
  -13.5991  -25.4435   15.8075 O   0  0  0  0  0  0  0  0  0  0  0  0
  -10.6922  -21.8161   15.2889 O   0  0  0  0  0  0  0  0  0  0  0  0
  -11.4338  -20.9664   14.3653 C   0  0  0  0  0  0  0  0  0  0  0  0
  -10.9052  -21.2017   13.0342 N   0  0  0  0  0  0  0  0  0  0  0  0
  -10.7814  -22.4114   12.4013 C   0  0  0  0  0  0  0  0  0  0  0  0
  -10.2640  -22.2918   11.1953 N   0  0  0  0  0  0  0  0  0  0  0  0
  -10.0274  -20.9476   11.0424 C   0  0  0  0  0  0  0  0  0  0  0  0
  -10.4203  -20.2487   12.1733 C   0  0  0  0  0  0  0  0  0  0  0  0
  -10.3338  -18.9216   12.3641 N   0  0  0  0  0  0  0  0  0  0  0  0
   -9.8057  -18.2730   11.3024 C   0  0  0  0  0  0  0  0  0  0  0  0
   -9.3808  -18.8370   10.1545 N   0  0  0  0  0  0  0  0  0  0  0  0
   -9.4895  -20.1691   10.0244 C   0  0  0  0  0  0  0  0  0  0  0  0
   -9.0330  -20.6622    8.8349 O   0  0  0  0  0  0  0  0  0  0  0  0
   -9.7222  -16.8901   11.4793 N   0  0  0  0  0  0  0  0  0  0  0  0
   -8.5796  -16.1798   11.7761 C   0  0  0  0  0  0  0  0  0  0  0  0
   -7.4445  -16.6221   11.9131 O   0  0  0  0  0  0  0  0  0  0  0  0
   -8.8524  -14.7024   11.8973 C   0  0  0  0  0  0  0  0  0  0  0  0
  1  2  1  0
  2  3  1  0
  3  4  1  0
  4  5  2  0
  4  6  1  0
  6  7  1  0
  7  8  1  0
  7 17  1  0
  8  9  1  0
  8 14  1  0
  9 10  1  0
  9 16  1  0
 10 11  1  0
 11 12  1  0
 12 13  2  0
 12 14  1  0
 12 15  1  0
 16 17  1  0
 17 18  1  0
 18 19  1  0
 18 22  1  0
 19 20  2  0
 20 21  1  0
 21 22  2  0
 21 26  1  0
 22 23  1  0
 23 24  2  0
 24 25  1  0
 24 28  1  0
 25 26  2  0
 26 27  1  0
 28 29  1  0
 29 30  2  0
 29 31  1  0
M  END
>  <Gold.Gold.Protein.RotatedWaterAtoms>  (209) 


>  <Gold.Id.Protein>  (209) 


>  <Gold.PLP.Chemscore.CHOScore>  (209) 
0.0000

>  <Gold.PLP.Chemscore.Hbond>  (209) 
1.2080

>  <Gold.PLP.Chemscore.Internal.Correction>  (209) 
0.1232

>  <Gold.PLP.Chemscore.Metal>  (209) 
0.0000

>  <Gold.PLP.Fitness>  (209) 
47.7145

>  <Gold.PLP.PLP>  (209) 
-46.0218

>  <Gold.PLP.ligand.clash>  (209) 
0.0000

>  <Gold.PLP.ligand.torsion>  (209) 
1.0272

>  <Gold.PLP.part.buried>  (209) 
-2.2958

>  <Gold.PLP.part.hbond>  (209) 
-4.0214

>  <Gold.PLP.part.metal>  (209) 
0.0000

>  <Gold.PLP.part.nonpolar>  (209) 
-41.4699

>  <Gold.PLP.part.repulsive>  (209) 
0.9524

>  <Gold.Protein.RotatedAtoms>  (209) 


>  <Gold.Protein.RotatedTorsions>  (209) 


>  <Gold.Protein.RotatedWaterAtoms>  (209) 


>  <Gold.Version>  (209) 
5.3.0

>  <PLP.Chemscore.CHOScore>  (209) 


>  <PLP.Chemscore.Hbond>  (209) 


>  <PLP.Chemscore.Internal.Correction>  (209) 


>  <PLP.Chemscore.Metal>  (209) 


>  <PLP.Fitness>  (209) 


>  <PLP.PLP>  (209) 


>  <PLP.ligand.clash>  (209) 


>  <PLP.ligand.torsion>  (209) 


>  <PLP.part.buried>  (209) 


>  <PLP.part.hbond>  (209) 


>  <PLP.part.metal>  (209) 


>  <PLP.part.nonpolar>  (209) 


>  <PLP.part.repulsive>  (209) 


>  <RMSD>  (209) 
0.291955871297

>  <Torsion>  (209) 
171.923704933

>  <TorsionO>  (209) 
6.03609353985

>  <TorsionR>  (209) 
177.959798473

>  <Version>  (209) 


>  <product>  (209) 
24|Compound_12|Compounds_3D_F|sdf|5|dock5|1

>  <rmsd>  (209) 
-1

$$$$
193|32168_281|Aromatic_primary_amines_F|sdf|39|dock6|1
     RDKit          3D

 23 25  0  0  0  0  0  0  0  0999 V2000
   -7.8439  -12.1461   11.8919 C   0  0  0  0  0  0  0  0  0  0  0  0
   -8.5691  -13.4472   11.6781 C   0  0  0  0  0  0  0  0  0  0  0  0
   -9.7886  -13.4981   11.5208 O   0  0  0  0  0  0  0  0  0  0  0  0
   -7.7264  -14.5390   11.7020 N   0  0  0  0  0  0  0  0  0  0  0  0
   -8.1889  -15.8197   11.5323 C   0  0  0  0  0  0  0  0  0  0  0  0
   -9.4747  -16.2039   11.8163 N   0  0  0  0  0  0  0  0  0  0  0  0
   -9.5964  -17.5375   11.5379 C   0  0  0  0  0  0  0  0  0  0  0  0
  -10.6643  -18.4283   11.6415 C   0  0  0  0  0  0  0  0  0  0  0  0
  -10.4051  -19.7586   11.2778 C   0  0  0  0  0  0  0  0  0  0  0  0
   -9.1530  -20.1507   10.7795 C   0  0  0  0  0  0  0  0  0  0  0  0
   -8.1017  -19.2294   10.6839 C   0  0  0  0  0  0  0  0  0  0  0  0
   -8.3349  -17.9032   11.0783 C   0  0  0  0  0  0  0  0  0  0  0  0
   -7.4773  -16.8281   11.0838 N   0  0  0  0  0  0  0  0  0  0  0  0
   -8.8530  -21.7658   10.2429 Cl  0  0  0  0  0  0  0  0  0  0  0  0
  -11.4669  -20.6323   11.3734 O   0  0  0  0  0  0  0  0  0  0  0  0
  -12.5262  -20.4408   10.5053 C   0  0  0  0  0  0  0  0  0  0  0  0
  -13.3188  -19.2846   10.5304 C   0  0  0  0  0  0  0  0  0  0  0  0
  -14.3665  -19.1344    9.6224 C   0  0  0  0  0  0  0  0  0  0  0  0
  -14.6219  -20.1279    8.6796 C   0  0  0  0  0  0  0  0  0  0  0  0
  -13.8238  -21.2756    8.6345 C   0  0  0  0  0  0  0  0  0  0  0  0
  -12.7674  -21.4342    9.5416 C   0  0  0  0  0  0  0  0  0  0  0  0
  -11.7588  -22.8458    9.4996 Cl  0  0  0  0  0  0  0  0  0  0  0  0
  -14.1988  -22.4584    7.4296 Cl  0  0  0  0  0  0  0  0  0  0  0  0
  1  2  1  0
  2  3  2  0
  2  4  1  0
  4  5  1  0
  5  6  1  0
  5 13  2  0
  6  7  1  0
  7  8  2  0
  7 12  1  0
  8  9  1  0
  9 10  2  0
  9 15  1  0
 10 11  1  0
 10 14  1  0
 11 12  2  0
 12 13  1  0
 15 16  1  0
 16 17  2  0
 16 21  1  0
 17 18  1  0
 18 19  2  0
 19 20  1  0
 20 21  2  0
 20 23  1  0
 21 22  1  0
M  END
>  <Gold.Gold.Protein.RotatedWaterAtoms>  (210) 


>  <Gold.Id.Protein>  (210) 


>  <Gold.PLP.Chemscore.CHOScore>  (210) 
0.0000

>  <Gold.PLP.Chemscore.Hbond>  (210) 
1.0000

>  <Gold.PLP.Chemscore.Internal.Correction>  (210) 
0.0086

>  <Gold.PLP.Chemscore.Metal>  (210) 
0.0000

>  <Gold.PLP.Fitness>  (210) 
50.7139

>  <Gold.PLP.PLP>  (210) 
-48.1706

>  <Gold.PLP.ligand.clash>  (210) 
0.0000

>  <Gold.PLP.ligand.torsion>  (210) 
0.2327

>  <Gold.PLP.part.buried>  (210) 
-6.5205

>  <Gold.PLP.part.hbond>  (210) 
-2.0000

>  <Gold.PLP.part.metal>  (210) 
0.0000

>  <Gold.PLP.part.nonpolar>  (210) 
-39.3857

>  <Gold.PLP.part.repulsive>  (210) 
0.3298

>  <Gold.Protein.RotatedAtoms>  (210) 


>  <Gold.Protein.RotatedTorsions>  (210) 


>  <Gold.Protein.RotatedWaterAtoms>  (210) 


>  <Gold.Version>  (210) 
5.3.0

>  <PLP.Chemscore.CHOScore>  (210) 


>  <PLP.Chemscore.Hbond>  (210) 


>  <PLP.Chemscore.Internal.Correction>  (210) 


>  <PLP.Chemscore.Metal>  (210) 


>  <PLP.Fitness>  (210) 


>  <PLP.PLP>  (210) 


>  <PLP.ligand.clash>  (210) 


>  <PLP.ligand.torsion>  (210) 


>  <PLP.part.buried>  (210) 


>  <PLP.part.hbond>  (210) 


>  <PLP.part.metal>  (210) 


>  <PLP.part.nonpolar>  (210) 


>  <PLP.part.repulsive>  (210) 


>  <RMSD>  (210) 
0.439733510035

>  <Torsion>  (210) 
177.672185574

>  <TorsionO>  (210) 
4.31728583372

>  <TorsionR>  (210) 
173.35489974

>  <Version>  (210) 


>  <product>  (210) 
24|Compound_12|Compounds_3D_F|sdf|5|dock5|1

>  <rmsd>  (210) 
-1

$$$$
29|Compound_19|Compounds_3D_F|sdf|6|dock2|1
     RDKit          3D

 12 11  0  0  0  0  0  0  0  0999 V2000
   -4.5704  -12.5446   13.3339 O   0  0  0  0  0  0  0  0  0  0  0  0
   -5.5988  -12.7492   12.4971 C   0  0  0  0  0  0  0  0  0  0  0  0
   -6.0861  -11.8190   11.8982 O   0  0  0  0  0  0  0  0  0  0  0  0
   -6.1480  -14.1393   12.3036 C   0  0  0  0  0  0  0  0  0  0  0  0
   -5.1132  -14.9978   11.7216 N   0  0  0  0  0  0  0  0  0  0  0  0
   -4.9773  -16.2706   12.1423 C   0  0  0  0  0  0  0  0  0  0  0  0
   -5.7127  -16.7056   13.0032 O   0  0  0  0  0  0  0  0  0  0  0  0
   -3.9130  -17.1533   11.5432 C   0  0  0  0  0  0  0  0  0  0  0  0
   -3.4480  -16.5708   10.2819 N   0  0  0  0  0  0  0  0  0  0  0  0
   -2.7388  -17.3195    9.4149 C   0  0  0  0  0  0  0  0  0  0  0  0
   -2.4851  -18.4756    9.6780 O   0  0  0  0  0  0  0  0  0  0  0  0
   -2.2400  -16.6950    8.0633 B   0  0  0  0  0  0  0  0  0  0  0  0
  1  2  1  0
  2  3  2  0
  2  4  1  0
  4  5  1  0
  5  6  1  0
  6  7  2  0
  6  8  1  0
  8  9  1  0
  9 10  1  0
 10 11  2  0
 10 12  1  0
M  END
>  <Gold.Gold.Protein.RotatedWaterAtoms>  (211) 


>  <Gold.Id.Protein>  (211) 


>  <Gold.PLP.Chemscore.CHOScore>  (211) 
0.0000

>  <Gold.PLP.Chemscore.Hbond>  (211) 
2.9600

>  <Gold.PLP.Chemscore.Internal.Correction>  (211) 
0.0064

>  <Gold.PLP.Chemscore.Metal>  (211) 
0.0000

>  <Gold.PLP.Fitness>  (211) 
37.8655

>  <Gold.PLP.PLP>  (211) 
-29.9444

>  <Gold.PLP.ligand.clash>  (211) 
0.0000

>  <Gold.PLP.ligand.torsion>  (211) 
0.4827

>  <Gold.PLP.part.buried>  (211) 
-6.3361

>  <Gold.PLP.part.hbond>  (211) 
-5.6677

>  <Gold.PLP.part.metal>  (211) 
0.0000

>  <Gold.PLP.part.nonpolar>  (211) 
-18.0334

>  <Gold.PLP.part.repulsive>  (211) 
0.5441

>  <Gold.Protein.RotatedAtoms>  (211) 


>  <Gold.Protein.RotatedTorsions>  (211) 


>  <Gold.Protein.RotatedWaterAtoms>  (211) 


>  <Gold.Version>  (211) 
5.3.0

>  <PLP.Chemscore.CHOScore>  (211) 


>  <PLP.Chemscore.Hbond>  (211) 


>  <PLP.Chemscore.Internal.Correction>  (211) 


>  <PLP.Chemscore.Metal>  (211) 


>  <PLP.Fitness>  (211) 


>  <PLP.PLP>  (211) 


>  <PLP.ligand.clash>  (211) 


>  <PLP.ligand.torsion>  (211) 


>  <PLP.part.buried>  (211) 


>  <PLP.part.hbond>  (211) 


>  <PLP.part.metal>  (211) 


>  <PLP.part.nonpolar>  (211) 


>  <PLP.part.repulsive>  (211) 


>  <Version>  (211) 


$$$$
94|664022_40|Aromatic_carboxylic_acids_F|sdf|24|dock1|1
     RDKit          3D

 12 12  0  0  0  0  0  0  0  0999 V2000
   -8.2596  -17.1212   11.4595 C   0  0  0  0  0  0  0  0  0  0  0  0
   -7.6366  -15.8367   11.6688 N   0  0  0  0  0  0  0  0  0  0  0  0
   -8.3409  -14.6553   11.5719 C   0  0  0  0  0  0  0  0  0  0  0  0
   -9.5296  -14.5547   11.2978 O   0  0  0  0  0  0  0  0  0  0  0  0
   -7.5420  -13.4431   11.8503 C   0  0  0  0  0  0  0  0  0  0  0  0
   -8.1627  -12.1983   11.6738 C   0  0  0  0  0  0  0  0  0  0  0  0
   -7.4390  -11.0301   11.9055 C   0  0  0  0  0  0  0  0  0  0  0  0
   -6.1069  -11.0910   12.3103 C   0  0  0  0  0  0  0  0  0  0  0  0
   -5.4897  -12.3324   12.4853 C   0  0  0  0  0  0  0  0  0  0  0  0
   -6.2035  -13.5136   12.2549 C   0  0  0  0  0  0  0  0  0  0  0  0
   -5.3062  -15.1564   12.5638 Br  0  0  0  0  0  0  0  0  0  0  0  0
   -8.1960   -9.5005   11.6887 Cl  0  0  0  0  0  0  0  0  0  0  0  0
  1  2  1  0
  2  3  1  0
  3  4  2  0
  3  5  1  0
  5  6  2  0
  5 10  1  0
  6  7  1  0
  7  8  2  0
  7 12  1  0
  8  9  1  0
  9 10  2  0
 10 11  1  0
M  END
>  <Gold.Gold.Protein.RotatedWaterAtoms>  (212) 


>  <Gold.Id.Protein>  (212) 


>  <Gold.PLP.Chemscore.CHOScore>  (212) 
0.0000

>  <Gold.PLP.Chemscore.Hbond>  (212) 
0.4160

>  <Gold.PLP.Chemscore.Internal.Correction>  (212) 
0.0004

>  <Gold.PLP.Chemscore.Metal>  (212) 
0.0000

>  <Gold.PLP.Fitness>  (212) 
48.9046

>  <Gold.PLP.PLP>  (212) 
-47.6744

>  <Gold.PLP.ligand.clash>  (212) 
0.0000

>  <Gold.PLP.ligand.torsion>  (212) 
0.0091

>  <Gold.PLP.part.buried>  (212) 
-7.3578

>  <Gold.PLP.part.hbond>  (212) 
-0.5127

>  <Gold.PLP.part.metal>  (212) 
0.0000

>  <Gold.PLP.part.nonpolar>  (212) 
-40.3098

>  <Gold.PLP.part.repulsive>  (212) 
0.1684

>  <Gold.Protein.RotatedAtoms>  (212) 


>  <Gold.Protein.RotatedTorsions>  (212) 


>  <Gold.Protein.RotatedWaterAtoms>  (212) 


>  <Gold.Version>  (212) 
5.3.0

>  <PLP.Chemscore.CHOScore>  (212) 


>  <PLP.Chemscore.Hbond>  (212) 


>  <PLP.Chemscore.Internal.Correction>  (212) 


>  <PLP.Chemscore.Metal>  (212) 


>  <PLP.Fitness>  (212) 


>  <PLP.PLP>  (212) 


>  <PLP.ligand.clash>  (212) 


>  <PLP.ligand.torsion>  (212) 


>  <PLP.part.buried>  (212) 


>  <PLP.part.hbond>  (212) 


>  <PLP.part.metal>  (212) 


>  <PLP.part.nonpolar>  (212) 


>  <PLP.part.repulsive>  (212) 


>  <RMSD>  (212) 
0.30972197429

>  <Torsion>  (212) 
172.929186758

>  <TorsionO>  (212) 
24.4968065243

>  <TorsionR>  (212) 
162.574006718

>  <Version>  (212) 


>  <product>  (212) 
29|Compound_19|Compounds_3D_F|sdf|6|dock2|1

>  <rmsd>  (212) 
-1

$$$$
110|565385_49|Aromatic_carboxylic_acids_F|sdf|29|dock1|1
     RDKit          3D

 13 13  0  0  0  0  0  0  0  0999 V2000
  -10.1118  -17.9021   11.6320 C   0  0  0  0  0  0  0  0  0  0  0  0
   -9.7537  -16.5043   11.6546 N   0  0  0  0  0  0  0  0  0  0  0  0
   -8.4330  -16.1187   11.7930 C   0  0  0  0  0  0  0  0  0  0  0  0
   -7.5159  -16.9298   11.9008 O   0  0  0  0  0  0  0  0  0  0  0  0
   -8.1234  -14.6552   11.8105 C   0  0  0  0  0  0  0  0  0  0  0  0
   -9.0636  -13.6551   11.5375 C   0  0  0  0  0  0  0  0  0  0  0  0
   -8.6966  -12.3009   11.5726 C   0  0  0  0  0  0  0  0  0  0  0  0
   -7.3879  -11.9195   11.8809 C   0  0  0  0  0  0  0  0  0  0  0  0
   -6.4486  -12.9235   12.1551 C   0  0  0  0  0  0  0  0  0  0  0  0
   -6.8098  -14.2750   12.1207 C   0  0  0  0  0  0  0  0  0  0  0  0
   -4.6444  -12.5025   12.5849 Br  0  0  0  0  0  0  0  0  0  0  0  0
   -6.9476  -10.6242   11.9372 O   0  0  0  0  0  0  0  0  0  0  0  0
   -7.9020   -9.5910   11.7256 C   0  0  0  0  0  0  0  0  0  0  0  0
  1  2  1  0
  2  3  1  0
  3  4  2  0
  3  5  1  0
  5  6  2  0
  5 10  1  0
  6  7  1  0
  7  8  2  0
  8  9  1  0
  8 12  1  0
  9 10  2  0
  9 11  1  0
 12 13  1  0
M  END
>  <Gold.Gold.Protein.RotatedWaterAtoms>  (213) 


>  <Gold.Id.Protein>  (213) 


>  <Gold.PLP.Chemscore.CHOScore>  (213) 
0.0000

>  <Gold.PLP.Chemscore.Hbond>  (213) 
1.0000

>  <Gold.PLP.Chemscore.Internal.Correction>  (213) 
0.0000

>  <Gold.PLP.Chemscore.Metal>  (213) 
0.0000

>  <Gold.PLP.Fitness>  (213) 
43.9775

>  <Gold.PLP.PLP>  (213) 
-41.0517

>  <Gold.PLP.ligand.clash>  (213) 
0.0000

>  <Gold.PLP.ligand.torsion>  (213) 
0.0371

>  <Gold.PLP.part.buried>  (213) 
-3.7367

>  <Gold.PLP.part.hbond>  (213) 
-1.0000

>  <Gold.PLP.part.metal>  (213) 
0.0000

>  <Gold.PLP.part.nonpolar>  (213) 
-36.7483

>  <Gold.PLP.part.repulsive>  (213) 
0.4054

>  <Gold.Protein.RotatedAtoms>  (213) 


>  <Gold.Protein.RotatedTorsions>  (213) 


>  <Gold.Protein.RotatedWaterAtoms>  (213) 


>  <Gold.Version>  (213) 
5.3.0

>  <PLP.Chemscore.CHOScore>  (213) 


>  <PLP.Chemscore.Hbond>  (213) 


>  <PLP.Chemscore.Internal.Correction>  (213) 


>  <PLP.Chemscore.Metal>  (213) 


>  <PLP.Fitness>  (213) 


>  <PLP.PLP>  (213) 


>  <PLP.ligand.clash>  (213) 


>  <PLP.ligand.torsion>  (213) 


>  <PLP.part.buried>  (213) 


>  <PLP.part.hbond>  (213) 


>  <PLP.part.metal>  (213) 


>  <PLP.part.nonpolar>  (213) 


>  <PLP.part.repulsive>  (213) 


>  <RMSD>  (213) 
0.319376411377

>  <Torsion>  (213) 
169.460450784

>  <TorsionO>  (213) 
9.7963905484

>  <TorsionR>  (213) 
179.256841332

>  <Version>  (213) 


>  <product>  (213) 
29|Compound_19|Compounds_3D_F|sdf|6|dock2|1

>  <rmsd>  (213) 
-1

$$$$
128|137677_56|Aromatic_carboxylic_acids_F|sdf|33|dock1|1
     RDKit          3D

 11 11  0  0  0  0  0  0  0  0999 V2000
   -8.6116  -16.1544   11.8887 C   0  0  0  0  0  0  0  0  0  0  0  0
   -7.9978  -14.8484   11.9215 N   0  0  0  0  0  0  0  0  0  0  0  0
   -8.7778  -13.7008   11.8756 C   0  0  0  0  0  0  0  0  0  0  0  0
  -10.0002  -13.7896   11.8139 O   0  0  0  0  0  0  0  0  0  0  0  0
   -8.0808  -12.3609   11.9017 C   0  0  0  0  0  0  0  0  0  0  0  0
   -8.7916  -11.1851   11.5813 C   0  0  0  0  0  0  0  0  0  0  0  0
   -8.1781   -9.9267   11.5989 C   0  0  0  0  0  0  0  0  0  0  0  0
   -6.8391   -9.8089   11.9369 C   0  0  0  0  0  0  0  0  0  0  0  0
   -6.1124  -10.9502   12.2575 C   0  0  0  0  0  0  0  0  0  0  0  0
   -6.7171  -12.2196   12.2428 C   0  0  0  0  0  0  0  0  0  0  0  0
   -5.5419  -13.6455   12.7121 Br  0  0  0  0  0  0  0  0  0  0  0  0
  1  2  1  0
  2  3  1  0
  3  4  2  0
  3  5  1  0
  5  6  2  0
  5 10  1  0
  6  7  1  0
  7  8  2  0
  8  9  1  0
  9 10  2  0
 10 11  1  0
M  END
>  <Gold.Gold.Protein.RotatedWaterAtoms>  (214) 


>  <Gold.Id.Protein>  (214) 


>  <Gold.PLP.Chemscore.CHOScore>  (214) 
0.0000

>  <Gold.PLP.Chemscore.Hbond>  (214) 
1.0000

>  <Gold.PLP.Chemscore.Internal.Correction>  (214) 
0.0000

>  <Gold.PLP.Chemscore.Metal>  (214) 
0.0000

>  <Gold.PLP.Fitness>  (214) 
45.2899

>  <Gold.PLP.PLP>  (214) 
-42.4444

>  <Gold.PLP.ligand.clash>  (214) 
0.0000

>  <Gold.PLP.ligand.torsion>  (214) 
0.0772

>  <Gold.PLP.part.buried>  (214) 
-6.4690

>  <Gold.PLP.part.hbond>  (214) 
-0.6863

>  <Gold.PLP.part.metal>  (214) 
0.0000

>  <Gold.PLP.part.nonpolar>  (214) 
-34.8280

>  <Gold.PLP.part.repulsive>  (214) 
0.1963

>  <Gold.Protein.RotatedAtoms>  (214) 


>  <Gold.Protein.RotatedTorsions>  (214) 


>  <Gold.Protein.RotatedWaterAtoms>  (214) 


>  <Gold.Version>  (214) 
5.3.0

>  <PLP.Chemscore.CHOScore>  (214) 


>  <PLP.Chemscore.Hbond>  (214) 


>  <PLP.Chemscore.Internal.Correction>  (214) 


>  <PLP.Chemscore.Metal>  (214) 


>  <PLP.Fitness>  (214) 


>  <PLP.PLP>  (214) 


>  <PLP.ligand.clash>  (214) 


>  <PLP.ligand.torsion>  (214) 


>  <PLP.part.buried>  (214) 


>  <PLP.part.hbond>  (214) 


>  <PLP.part.metal>  (214) 


>  <PLP.part.nonpolar>  (214) 


>  <PLP.part.repulsive>  (214) 


>  <RMSD>  (214) 
0.428070490903

>  <Torsion>  (214) 
152.444048788

>  <TorsionO>  (214) 
39.0580871276

>  <TorsionR>  (214) 
168.497864085

>  <Version>  (214) 


>  <product>  (214) 
29|Compound_19|Compounds_3D_F|sdf|6|dock2|1

>  <rmsd>  (214) 
-1

$$$$
974|750794_1404|Aromatic_primary_amines_F|sdf|194|dock3|1
     RDKit          3D

 14 14  0  0  0  0  0  0  0  0999 V2000
  -13.6355  -18.1936    9.4145 C   0  0  0  0  0  0  0  0  0  0  0  0
  -13.2544  -19.4497   10.1732 C   0  0  0  0  0  0  0  0  0  0  0  0
  -11.8731  -19.3506   10.5383 O   0  0  0  0  0  0  0  0  0  0  0  0
  -11.6148  -18.5085   11.5823 C   0  0  0  0  0  0  0  0  0  0  0  0
  -12.3947  -18.2810   12.5004 O   0  0  0  0  0  0  0  0  0  0  0  0
  -10.3031  -17.8985   11.4902 C   0  0  0  0  0  0  0  0  0  0  0  0
   -9.1673  -18.4974   10.9931 C   0  0  0  0  0  0  0  0  0  0  0  0
   -8.1448  -17.6055   11.0758 O   0  0  0  0  0  0  0  0  0  0  0  0
   -8.7110  -16.4917   11.6237 C   0  0  0  0  0  0  0  0  0  0  0  0
   -9.9933  -16.6110   11.8915 N   0  0  0  0  0  0  0  0  0  0  0  0
   -7.9611  -15.3718   11.8549 N   0  0  0  0  0  0  0  0  0  0  0  0
   -8.5046  -14.1249   12.0676 C   0  0  0  0  0  0  0  0  0  0  0  0
   -9.6950  -13.8313   12.1035 O   0  0  0  0  0  0  0  0  0  0  0  0
   -7.4448  -13.0785   12.3021 C   0  0  0  0  0  0  0  0  0  0  0  0
  1  2  1  0
  2  3  1  0
  3  4  1  0
  4  5  2  0
  4  6  1  0
  6  7  2  0
  6 10  1  0
  7  8  1  0
  8  9  1  0
  9 10  2  0
  9 11  1  0
 11 12  1  0
 12 13  2  0
 12 14  1  0
M  END
>  <Gold.Gold.Protein.RotatedWaterAtoms>  (215) 


>  <Gold.Id.Protein>  (215) 


>  <Gold.PLP.Chemscore.CHOScore>  (215) 
0.0000

>  <Gold.PLP.Chemscore.Hbond>  (215) 
2.0000

>  <Gold.PLP.Chemscore.Internal.Correction>  (215) 
0.0053

>  <Gold.PLP.Chemscore.Metal>  (215) 
0.0000

>  <Gold.PLP.Fitness>  (215) 
36.8047

>  <Gold.PLP.PLP>  (215) 
-32.7996

>  <Gold.PLP.ligand.clash>  (215) 
0.0000

>  <Gold.PLP.ligand.torsion>  (215) 
1.0001

>  <Gold.PLP.part.buried>  (215) 
-6.5206

>  <Gold.PLP.part.hbond>  (215) 
-2.9156

>  <Gold.PLP.part.metal>  (215) 
0.0000

>  <Gold.PLP.part.nonpolar>  (215) 
-23.4080

>  <Gold.PLP.part.repulsive>  (215) 
0.3100

>  <Gold.Protein.RotatedAtoms>  (215) 


>  <Gold.Protein.RotatedTorsions>  (215) 


>  <Gold.Protein.RotatedWaterAtoms>  (215) 


>  <Gold.Version>  (215) 
5.3.0

>  <PLP.Chemscore.CHOScore>  (215) 


>  <PLP.Chemscore.Hbond>  (215) 


>  <PLP.Chemscore.Internal.Correction>  (215) 


>  <PLP.Chemscore.Metal>  (215) 


>  <PLP.Fitness>  (215) 


>  <PLP.PLP>  (215) 


>  <PLP.ligand.clash>  (215) 


>  <PLP.ligand.torsion>  (215) 


>  <PLP.part.buried>  (215) 


>  <PLP.part.hbond>  (215) 


>  <PLP.part.metal>  (215) 


>  <PLP.part.nonpolar>  (215) 


>  <PLP.part.repulsive>  (215) 


>  <RMSD>  (215) 
0.499949349045

>  <Torsion>  (215) 
159.973716791

>  <TorsionO>  (215) 
19.1052109979

>  <TorsionR>  (215) 
179.078927789

>  <Version>  (215) 


>  <product>  (215) 
29|Compound_19|Compounds_3D_F|sdf|6|dock2|1

>  <rmsd>  (215) 
-1

$$$$
1884|M3006_1781|Aromatic_primary_amines_F|sdf|361|dock3|1
     RDKit          3D

 31 34  0  0  0  0  0  0  0  0999 V2000
  -14.4210  -19.8971    8.7934 C   0  0  0  0  0  0  0  0  0  0  0  0
  -13.9762  -19.4927   10.1894 C   0  0  0  0  0  0  0  0  0  0  0  0
  -14.1356  -20.6409   11.1817 C   0  0  0  0  0  0  0  0  0  0  0  0
  -13.5197  -20.3070   12.5189 C   0  0  0  0  0  0  0  0  0  0  0  0
  -12.9307  -19.2724   12.7954 O   0  0  0  0  0  0  0  0  0  0  0  0
  -13.7110  -21.3451   13.3845 O   0  0  0  0  0  0  0  0  0  0  0  0
  -12.9425  -21.2698   14.5900 C   0  0  0  0  0  0  0  0  0  0  0  0
  -12.8849  -22.6189   15.2889 C   0  0  0  0  0  0  0  0  0  0  0  0
  -11.6552  -22.4172   16.1494 C   0  0  0  0  0  0  0  0  0  0  0  0
  -11.2420  -23.7410   16.7624 C   0  0  0  0  0  0  0  0  0  0  0  0
  -12.3024  -24.2223   17.5862 O   0  0  0  0  0  0  0  0  0  0  0  0
  -13.7888  -24.3384   16.9603 P   0  0  0  0  0  0  0  0  0  0  0  0
  -14.8775  -24.6795   17.9243 O   0  0  0  0  0  0  0  0  0  0  0  0
  -13.9839  -22.9641   16.1174 O   0  0  0  0  0  0  0  0  0  0  0  0
  -13.5991  -25.4435   15.8075 O   0  0  0  0  0  0  0  0  0  0  0  0
  -10.6922  -21.8161   15.2889 O   0  0  0  0  0  0  0  0  0  0  0  0
  -11.4338  -20.9664   14.3653 C   0  0  0  0  0  0  0  0  0  0  0  0
  -10.9052  -21.2017   13.0342 N   0  0  0  0  0  0  0  0  0  0  0  0
  -10.7814  -22.4114   12.4013 C   0  0  0  0  0  0  0  0  0  0  0  0
  -10.2640  -22.2918   11.1953 N   0  0  0  0  0  0  0  0  0  0  0  0
  -10.0274  -20.9476   11.0424 C   0  0  0  0  0  0  0  0  0  0  0  0
  -10.4203  -20.2487   12.1733 C   0  0  0  0  0  0  0  0  0  0  0  0
  -10.3338  -18.9216   12.3641 N   0  0  0  0  0  0  0  0  0  0  0  0
   -9.8057  -18.2730   11.3024 C   0  0  0  0  0  0  0  0  0  0  0  0
   -9.3808  -18.8370   10.1545 N   0  0  0  0  0  0  0  0  0  0  0  0
   -9.4895  -20.1691   10.0244 C   0  0  0  0  0  0  0  0  0  0  0  0
   -9.0330  -20.6622    8.8349 O   0  0  0  0  0  0  0  0  0  0  0  0
   -9.7222  -16.8901   11.4793 N   0  0  0  0  0  0  0  0  0  0  0  0
   -8.5796  -16.1798   11.7761 C   0  0  0  0  0  0  0  0  0  0  0  0
   -7.4445  -16.6221   11.9131 O   0  0  0  0  0  0  0  0  0  0  0  0
   -8.8524  -14.7024   11.8973 C   0  0  0  0  0  0  0  0  0  0  0  0
  1  2  1  0
  2  3  1  0
  3  4  1  0
  4  5  2  0
  4  6  1  0
  6  7  1  0
  7  8  1  0
  7 17  1  0
  8  9  1  0
  8 14  1  0
  9 10  1  0
  9 16  1  0
 10 11  1  0
 11 12  1  0
 12 13  2  0
 12 14  1  0
 12 15  1  0
 16 17  1  0
 17 18  1  0
 18 19  1  0
 18 22  1  0
 19 20  2  0
 20 21  1  0
 21 22  2  0
 21 26  1  0
 22 23  1  0
 23 24  2  0
 24 25  1  0
 24 28  1  0
 25 26  2  0
 26 27  1  0
 28 29  1  0
 29 30  2  0
 29 31  1  0
M  END
>  <Gold.Gold.Protein.RotatedWaterAtoms>  (216) 


>  <Gold.Id.Protein>  (216) 


>  <Gold.PLP.Chemscore.CHOScore>  (216) 
0.0000

>  <Gold.PLP.Chemscore.Hbond>  (216) 
1.2080

>  <Gold.PLP.Chemscore.Internal.Correction>  (216) 
0.1232

>  <Gold.PLP.Chemscore.Metal>  (216) 
0.0000

>  <Gold.PLP.Fitness>  (216) 
47.7145

>  <Gold.PLP.PLP>  (216) 
-46.0218

>  <Gold.PLP.ligand.clash>  (216) 
0.0000

>  <Gold.PLP.ligand.torsion>  (216) 
1.0272

>  <Gold.PLP.part.buried>  (216) 
-2.2958

>  <Gold.PLP.part.hbond>  (216) 
-4.0214

>  <Gold.PLP.part.metal>  (216) 
0.0000

>  <Gold.PLP.part.nonpolar>  (216) 
-41.4699

>  <Gold.PLP.part.repulsive>  (216) 
0.9524

>  <Gold.Protein.RotatedAtoms>  (216) 


>  <Gold.Protein.RotatedTorsions>  (216) 


>  <Gold.Protein.RotatedWaterAtoms>  (216) 


>  <Gold.Version>  (216) 
5.3.0

>  <PLP.Chemscore.CHOScore>  (216) 


>  <PLP.Chemscore.Hbond>  (216) 


>  <PLP.Chemscore.Internal.Correction>  (216) 


>  <PLP.Chemscore.Metal>  (216) 


>  <PLP.Fitness>  (216) 


>  <PLP.PLP>  (216) 


>  <PLP.ligand.clash>  (216) 


>  <PLP.ligand.torsion>  (216) 


>  <PLP.part.buried>  (216) 


>  <PLP.part.hbond>  (216) 


>  <PLP.part.metal>  (216) 


>  <PLP.part.nonpolar>  (216) 


>  <PLP.part.repulsive>  (216) 


>  <RMSD>  (216) 
0.291955871297

>  <Torsion>  (216) 
171.923704933

>  <TorsionO>  (216) 
6.03609353985

>  <TorsionR>  (216) 
177.959798473

>  <Version>  (216) 


>  <product>  (216) 
29|Compound_19|Compounds_3D_F|sdf|6|dock2|1

>  <rmsd>  (216) 
-1

$$$$
193|32168_281|Aromatic_primary_amines_F|sdf|39|dock6|1
     RDKit          3D

 23 25  0  0  0  0  0  0  0  0999 V2000
   -7.8439  -12.1461   11.8919 C   0  0  0  0  0  0  0  0  0  0  0  0
   -8.5691  -13.4472   11.6781 C   0  0  0  0  0  0  0  0  0  0  0  0
   -9.7886  -13.4981   11.5208 O   0  0  0  0  0  0  0  0  0  0  0  0
   -7.7264  -14.5390   11.7020 N   0  0  0  0  0  0  0  0  0  0  0  0
   -8.1889  -15.8197   11.5323 C   0  0  0  0  0  0  0  0  0  0  0  0
   -9.4747  -16.2039   11.8163 N   0  0  0  0  0  0  0  0  0  0  0  0
   -9.5964  -17.5375   11.5379 C   0  0  0  0  0  0  0  0  0  0  0  0
  -10.6643  -18.4283   11.6415 C   0  0  0  0  0  0  0  0  0  0  0  0
  -10.4051  -19.7586   11.2778 C   0  0  0  0  0  0  0  0  0  0  0  0
   -9.1530  -20.1507   10.7795 C   0  0  0  0  0  0  0  0  0  0  0  0
   -8.1017  -19.2294   10.6839 C   0  0  0  0  0  0  0  0  0  0  0  0
   -8.3349  -17.9032   11.0783 C   0  0  0  0  0  0  0  0  0  0  0  0
   -7.4773  -16.8281   11.0838 N   0  0  0  0  0  0  0  0  0  0  0  0
   -8.8530  -21.7658   10.2429 Cl  0  0  0  0  0  0  0  0  0  0  0  0
  -11.4669  -20.6323   11.3734 O   0  0  0  0  0  0  0  0  0  0  0  0
  -12.5262  -20.4408   10.5053 C   0  0  0  0  0  0  0  0  0  0  0  0
  -13.3188  -19.2846   10.5304 C   0  0  0  0  0  0  0  0  0  0  0  0
  -14.3665  -19.1344    9.6224 C   0  0  0  0  0  0  0  0  0  0  0  0
  -14.6219  -20.1279    8.6796 C   0  0  0  0  0  0  0  0  0  0  0  0
  -13.8238  -21.2756    8.6345 C   0  0  0  0  0  0  0  0  0  0  0  0
  -12.7674  -21.4342    9.5416 C   0  0  0  0  0  0  0  0  0  0  0  0
  -11.7588  -22.8458    9.4996 Cl  0  0  0  0  0  0  0  0  0  0  0  0
  -14.1988  -22.4584    7.4296 Cl  0  0  0  0  0  0  0  0  0  0  0  0
  1  2  1  0
  2  3  2  0
  2  4  1  0
  4  5  1  0
  5  6  1  0
  5 13  2  0
  6  7  1  0
  7  8  2  0
  7 12  1  0
  8  9  1  0
  9 10  2  0
  9 15  1  0
 10 11  1  0
 10 14  1  0
 11 12  2  0
 12 13  1  0
 15 16  1  0
 16 17  2  0
 16 21  1  0
 17 18  1  0
 18 19  2  0
 19 20  1  0
 20 21  2  0
 20 23  1  0
 21 22  1  0
M  END
>  <Gold.Gold.Protein.RotatedWaterAtoms>  (217) 


>  <Gold.Id.Protein>  (217) 


>  <Gold.PLP.Chemscore.CHOScore>  (217) 
0.0000

>  <Gold.PLP.Chemscore.Hbond>  (217) 
1.0000

>  <Gold.PLP.Chemscore.Internal.Correction>  (217) 
0.0086

>  <Gold.PLP.Chemscore.Metal>  (217) 
0.0000

>  <Gold.PLP.Fitness>  (217) 
50.7139

>  <Gold.PLP.PLP>  (217) 
-48.1706

>  <Gold.PLP.ligand.clash>  (217) 
0.0000

>  <Gold.PLP.ligand.torsion>  (217) 
0.2327

>  <Gold.PLP.part.buried>  (217) 
-6.5205

>  <Gold.PLP.part.hbond>  (217) 
-2.0000

>  <Gold.PLP.part.metal>  (217) 
0.0000

>  <Gold.PLP.part.nonpolar>  (217) 
-39.3857

>  <Gold.PLP.part.repulsive>  (217) 
0.3298

>  <Gold.Protein.RotatedAtoms>  (217) 


>  <Gold.Protein.RotatedTorsions>  (217) 


>  <Gold.Protein.RotatedWaterAtoms>  (217) 


>  <Gold.Version>  (217) 
5.3.0

>  <PLP.Chemscore.CHOScore>  (217) 


>  <PLP.Chemscore.Hbond>  (217) 


>  <PLP.Chemscore.Internal.Correction>  (217) 


>  <PLP.Chemscore.Metal>  (217) 


>  <PLP.Fitness>  (217) 


>  <PLP.PLP>  (217) 


>  <PLP.ligand.clash>  (217) 


>  <PLP.ligand.torsion>  (217) 


>  <PLP.part.buried>  (217) 


>  <PLP.part.hbond>  (217) 


>  <PLP.part.metal>  (217) 


>  <PLP.part.nonpolar>  (217) 


>  <PLP.part.repulsive>  (217) 


>  <RMSD>  (217) 
0.439733510035

>  <Torsion>  (217) 
177.672185574

>  <TorsionO>  (217) 
4.31728583372

>  <TorsionR>  (217) 
173.35489974

>  <Version>  (217) 


>  <product>  (217) 
29|Compound_19|Compounds_3D_F|sdf|6|dock2|1

>  <rmsd>  (217) 
-1

$$$$
78|Compound_31|Compounds_3D_F|sdf|13|dock4|1
     RDKit          3D

 10  9  0  0  0  0  0  0  0  0999 V2000
   -4.6001  -12.3878   13.2994 O   0  0  0  0  0  0  0  0  0  0  0  0
   -5.6708  -12.2784   12.4986 C   0  0  0  0  0  0  0  0  0  0  0  0
   -6.0516  -11.1876   12.1429 O   0  0  0  0  0  0  0  0  0  0  0  0
   -6.4003  -13.5158   12.0422 C   0  0  0  0  0  0  0  0  0  0  0  0
   -7.7823  -13.4100   12.3887 O   0  0  0  0  0  0  0  0  0  0  0  0
   -5.7962  -14.7449   12.7247 C   0  0  0  0  0  0  0  0  0  0  0  0
   -4.7047  -15.2734   11.9017 N   0  0  0  0  0  0  0  0  0  0  0  0
   -4.3364  -16.5643   12.0184 C   0  0  0  0  0  0  0  0  0  0  0  0
   -4.9085  -17.2884   12.8052 O   0  0  0  0  0  0  0  0  0  0  0  0
   -3.1679  -17.1302   11.1362 B   0  0  0  0  0  0  0  0  0  0  0  0
  1  2  1  0
  2  3  2  0
  2  4  1  0
  4  5  1  0
  4  6  1  0
  6  7  1  0
  7  8  1  0
  8  9  2  0
  8 10  1  0
M  END
>  <Gold.Gold.Protein.RotatedWaterAtoms>  (218) 


>  <Gold.Id.Protein>  (218) 


>  <Gold.PLP.Chemscore.CHOScore>  (218) 
0.0000

>  <Gold.PLP.Chemscore.Hbond>  (218) 
2.0000

>  <Gold.PLP.Chemscore.Internal.Correction>  (218) 
0.0008

>  <Gold.PLP.Chemscore.Metal>  (218) 
0.0000

>  <Gold.PLP.Fitness>  (218) 
32.2576

>  <Gold.PLP.PLP>  (218) 
-29.0468

>  <Gold.PLP.ligand.clash>  (218) 
1.6250

>  <Gold.PLP.ligand.torsion>  (218) 
0.5825

>  <Gold.PLP.part.buried>  (218) 
-7.9511

>  <Gold.PLP.part.hbond>  (218) 
-4.4295

>  <Gold.PLP.part.metal>  (218) 
0.0000

>  <Gold.PLP.part.nonpolar>  (218) 
-17.4249

>  <Gold.PLP.part.repulsive>  (218) 
0.4302

>  <Gold.Protein.RotatedAtoms>  (218) 


>  <Gold.Protein.RotatedTorsions>  (218) 


>  <Gold.Protein.RotatedWaterAtoms>  (218) 


>  <Gold.Version>  (218) 
5.3.0

>  <PLP.Chemscore.CHOScore>  (218) 


>  <PLP.Chemscore.Hbond>  (218) 


>  <PLP.Chemscore.Internal.Correction>  (218) 


>  <PLP.Chemscore.Metal>  (218) 


>  <PLP.Fitness>  (218) 


>  <PLP.PLP>  (218) 


>  <PLP.ligand.clash>  (218) 


>  <PLP.ligand.torsion>  (218) 


>  <PLP.part.buried>  (218) 


>  <PLP.part.hbond>  (218) 


>  <PLP.part.metal>  (218) 


>  <PLP.part.nonpolar>  (218) 


>  <PLP.part.repulsive>  (218) 


>  <Version>  (218) 


$$$$
94|664022_40|Aromatic_carboxylic_acids_F|sdf|24|dock1|1
     RDKit          3D

 12 12  0  0  0  0  0  0  0  0999 V2000
   -8.2596  -17.1212   11.4595 C   0  0  0  0  0  0  0  0  0  0  0  0
   -7.6366  -15.8367   11.6688 N   0  0  0  0  0  0  0  0  0  0  0  0
   -8.3409  -14.6553   11.5719 C   0  0  0  0  0  0  0  0  0  0  0  0
   -9.5296  -14.5547   11.2978 O   0  0  0  0  0  0  0  0  0  0  0  0
   -7.5420  -13.4431   11.8503 C   0  0  0  0  0  0  0  0  0  0  0  0
   -8.1627  -12.1983   11.6738 C   0  0  0  0  0  0  0  0  0  0  0  0
   -7.4390  -11.0301   11.9055 C   0  0  0  0  0  0  0  0  0  0  0  0
   -6.1069  -11.0910   12.3103 C   0  0  0  0  0  0  0  0  0  0  0  0
   -5.4897  -12.3324   12.4853 C   0  0  0  0  0  0  0  0  0  0  0  0
   -6.2035  -13.5136   12.2549 C   0  0  0  0  0  0  0  0  0  0  0  0
   -5.3062  -15.1564   12.5638 Br  0  0  0  0  0  0  0  0  0  0  0  0
   -8.1960   -9.5005   11.6887 Cl  0  0  0  0  0  0  0  0  0  0  0  0
  1  2  1  0
  2  3  1  0
  3  4  2  0
  3  5  1  0
  5  6  2  0
  5 10  1  0
  6  7  1  0
  7  8  2  0
  7 12  1  0
  8  9  1  0
  9 10  2  0
 10 11  1  0
M  END
>  <Gold.Gold.Protein.RotatedWaterAtoms>  (219) 


>  <Gold.Id.Protein>  (219) 


>  <Gold.PLP.Chemscore.CHOScore>  (219) 
0.0000

>  <Gold.PLP.Chemscore.Hbond>  (219) 
0.4160

>  <Gold.PLP.Chemscore.Internal.Correction>  (219) 
0.0004

>  <Gold.PLP.Chemscore.Metal>  (219) 
0.0000

>  <Gold.PLP.Fitness>  (219) 
48.9046

>  <Gold.PLP.PLP>  (219) 
-47.6744

>  <Gold.PLP.ligand.clash>  (219) 
0.0000

>  <Gold.PLP.ligand.torsion>  (219) 
0.0091

>  <Gold.PLP.part.buried>  (219) 
-7.3578

>  <Gold.PLP.part.hbond>  (219) 
-0.5127

>  <Gold.PLP.part.metal>  (219) 
0.0000

>  <Gold.PLP.part.nonpolar>  (219) 
-40.3098

>  <Gold.PLP.part.repulsive>  (219) 
0.1684

>  <Gold.Protein.RotatedAtoms>  (219) 


>  <Gold.Protein.RotatedTorsions>  (219) 


>  <Gold.Protein.RotatedWaterAtoms>  (219) 


>  <Gold.Version>  (219) 
5.3.0

>  <PLP.Chemscore.CHOScore>  (219) 


>  <PLP.Chemscore.Hbond>  (219) 


>  <PLP.Chemscore.Internal.Correction>  (219) 


>  <PLP.Chemscore.Metal>  (219) 


>  <PLP.Fitness>  (219) 


>  <PLP.PLP>  (219) 


>  <PLP.ligand.clash>  (219) 


>  <PLP.ligand.torsion>  (219) 


>  <PLP.part.buried>  (219) 


>  <PLP.part.hbond>  (219) 


>  <PLP.part.metal>  (219) 


>  <PLP.part.nonpolar>  (219) 


>  <PLP.part.repulsive>  (219) 


>  <RMSD>  (219) 
0.30972197429

>  <Torsion>  (219) 
172.929186758

>  <TorsionO>  (219) 
24.4968065243

>  <TorsionR>  (219) 
162.574006718

>  <Version>  (219) 


>  <product>  (219) 
78|Compound_31|Compounds_3D_F|sdf|13|dock4|1

>  <rmsd>  (219) 
-1

$$$$
110|565385_49|Aromatic_carboxylic_acids_F|sdf|29|dock1|1
     RDKit          3D

 13 13  0  0  0  0  0  0  0  0999 V2000
  -10.1118  -17.9021   11.6320 C   0  0  0  0  0  0  0  0  0  0  0  0
   -9.7537  -16.5043   11.6546 N   0  0  0  0  0  0  0  0  0  0  0  0
   -8.4330  -16.1187   11.7930 C   0  0  0  0  0  0  0  0  0  0  0  0
   -7.5159  -16.9298   11.9008 O   0  0  0  0  0  0  0  0  0  0  0  0
   -8.1234  -14.6552   11.8105 C   0  0  0  0  0  0  0  0  0  0  0  0
   -9.0636  -13.6551   11.5375 C   0  0  0  0  0  0  0  0  0  0  0  0
   -8.6966  -12.3009   11.5726 C   0  0  0  0  0  0  0  0  0  0  0  0
   -7.3879  -11.9195   11.8809 C   0  0  0  0  0  0  0  0  0  0  0  0
   -6.4486  -12.9235   12.1551 C   0  0  0  0  0  0  0  0  0  0  0  0
   -6.8098  -14.2750   12.1207 C   0  0  0  0  0  0  0  0  0  0  0  0
   -4.6444  -12.5025   12.5849 Br  0  0  0  0  0  0  0  0  0  0  0  0
   -6.9476  -10.6242   11.9372 O   0  0  0  0  0  0  0  0  0  0  0  0
   -7.9020   -9.5910   11.7256 C   0  0  0  0  0  0  0  0  0  0  0  0
  1  2  1  0
  2  3  1  0
  3  4  2  0
  3  5  1  0
  5  6  2  0
  5 10  1  0
  6  7  1  0
  7  8  2  0
  8  9  1  0
  8 12  1  0
  9 10  2  0
  9 11  1  0
 12 13  1  0
M  END
>  <Gold.Gold.Protein.RotatedWaterAtoms>  (220) 


>  <Gold.Id.Protein>  (220) 


>  <Gold.PLP.Chemscore.CHOScore>  (220) 
0.0000

>  <Gold.PLP.Chemscore.Hbond>  (220) 
1.0000

>  <Gold.PLP.Chemscore.Internal.Correction>  (220) 
0.0000

>  <Gold.PLP.Chemscore.Metal>  (220) 
0.0000

>  <Gold.PLP.Fitness>  (220) 
43.9775

>  <Gold.PLP.PLP>  (220) 
-41.0517

>  <Gold.PLP.ligand.clash>  (220) 
0.0000

>  <Gold.PLP.ligand.torsion>  (220) 
0.0371

>  <Gold.PLP.part.buried>  (220) 
-3.7367

>  <Gold.PLP.part.hbond>  (220) 
-1.0000

>  <Gold.PLP.part.metal>  (220) 
0.0000

>  <Gold.PLP.part.nonpolar>  (220) 
-36.7483

>  <Gold.PLP.part.repulsive>  (220) 
0.4054

>  <Gold.Protein.RotatedAtoms>  (220) 


>  <Gold.Protein.RotatedTorsions>  (220) 


>  <Gold.Protein.RotatedWaterAtoms>  (220) 


>  <Gold.Version>  (220) 
5.3.0

>  <PLP.Chemscore.CHOScore>  (220) 


>  <PLP.Chemscore.Hbond>  (220) 


>  <PLP.Chemscore.Internal.Correction>  (220) 


>  <PLP.Chemscore.Metal>  (220) 


>  <PLP.Fitness>  (220) 


>  <PLP.PLP>  (220) 


>  <PLP.ligand.clash>  (220) 


>  <PLP.ligand.torsion>  (220) 


>  <PLP.part.buried>  (220) 


>  <PLP.part.hbond>  (220) 


>  <PLP.part.metal>  (220) 


>  <PLP.part.nonpolar>  (220) 


>  <PLP.part.repulsive>  (220) 


>  <RMSD>  (220) 
0.319376411377

>  <Torsion>  (220) 
169.460450784

>  <TorsionO>  (220) 
9.7963905484

>  <TorsionR>  (220) 
179.256841332

>  <Version>  (220) 


>  <product>  (220) 
78|Compound_31|Compounds_3D_F|sdf|13|dock4|1

>  <rmsd>  (220) 
-1

$$$$
128|137677_56|Aromatic_carboxylic_acids_F|sdf|33|dock1|1
     RDKit          3D

 11 11  0  0  0  0  0  0  0  0999 V2000
   -8.6116  -16.1544   11.8887 C   0  0  0  0  0  0  0  0  0  0  0  0
   -7.9978  -14.8484   11.9215 N   0  0  0  0  0  0  0  0  0  0  0  0
   -8.7778  -13.7008   11.8756 C   0  0  0  0  0  0  0  0  0  0  0  0
  -10.0002  -13.7896   11.8139 O   0  0  0  0  0  0  0  0  0  0  0  0
   -8.0808  -12.3609   11.9017 C   0  0  0  0  0  0  0  0  0  0  0  0
   -8.7916  -11.1851   11.5813 C   0  0  0  0  0  0  0  0  0  0  0  0
   -8.1781   -9.9267   11.5989 C   0  0  0  0  0  0  0  0  0  0  0  0
   -6.8391   -9.8089   11.9369 C   0  0  0  0  0  0  0  0  0  0  0  0
   -6.1124  -10.9502   12.2575 C   0  0  0  0  0  0  0  0  0  0  0  0
   -6.7171  -12.2196   12.2428 C   0  0  0  0  0  0  0  0  0  0  0  0
   -5.5419  -13.6455   12.7121 Br  0  0  0  0  0  0  0  0  0  0  0  0
  1  2  1  0
  2  3  1  0
  3  4  2  0
  3  5  1  0
  5  6  2  0
  5 10  1  0
  6  7  1  0
  7  8  2  0
  8  9  1  0
  9 10  2  0
 10 11  1  0
M  END
>  <Gold.Gold.Protein.RotatedWaterAtoms>  (221) 


>  <Gold.Id.Protein>  (221) 


>  <Gold.PLP.Chemscore.CHOScore>  (221) 
0.0000

>  <Gold.PLP.Chemscore.Hbond>  (221) 
1.0000

>  <Gold.PLP.Chemscore.Internal.Correction>  (221) 
0.0000

>  <Gold.PLP.Chemscore.Metal>  (221) 
0.0000

>  <Gold.PLP.Fitness>  (221) 
45.2899

>  <Gold.PLP.PLP>  (221) 
-42.4444

>  <Gold.PLP.ligand.clash>  (221) 
0.0000

>  <Gold.PLP.ligand.torsion>  (221) 
0.0772

>  <Gold.PLP.part.buried>  (221) 
-6.4690

>  <Gold.PLP.part.hbond>  (221) 
-0.6863

>  <Gold.PLP.part.metal>  (221) 
0.0000

>  <Gold.PLP.part.nonpolar>  (221) 
-34.8280

>  <Gold.PLP.part.repulsive>  (221) 
0.1963

>  <Gold.Protein.RotatedAtoms>  (221) 


>  <Gold.Protein.RotatedTorsions>  (221) 


>  <Gold.Protein.RotatedWaterAtoms>  (221) 


>  <Gold.Version>  (221) 
5.3.0

>  <PLP.Chemscore.CHOScore>  (221) 


>  <PLP.Chemscore.Hbond>  (221) 


>  <PLP.Chemscore.Internal.Correction>  (221) 


>  <PLP.Chemscore.Metal>  (221) 


>  <PLP.Fitness>  (221) 


>  <PLP.PLP>  (221) 


>  <PLP.ligand.clash>  (221) 


>  <PLP.ligand.torsion>  (221) 


>  <PLP.part.buried>  (221) 


>  <PLP.part.hbond>  (221) 


>  <PLP.part.metal>  (221) 


>  <PLP.part.nonpolar>  (221) 


>  <PLP.part.repulsive>  (221) 


>  <RMSD>  (221) 
0.428070490903

>  <Torsion>  (221) 
152.444048788

>  <TorsionO>  (221) 
39.0580871276

>  <TorsionR>  (221) 
168.497864085

>  <Version>  (221) 


>  <product>  (221) 
78|Compound_31|Compounds_3D_F|sdf|13|dock4|1

>  <rmsd>  (221) 
-1

$$$$
974|750794_1404|Aromatic_primary_amines_F|sdf|194|dock3|1
     RDKit          3D

 14 14  0  0  0  0  0  0  0  0999 V2000
  -13.6355  -18.1936    9.4145 C   0  0  0  0  0  0  0  0  0  0  0  0
  -13.2544  -19.4497   10.1732 C   0  0  0  0  0  0  0  0  0  0  0  0
  -11.8731  -19.3506   10.5383 O   0  0  0  0  0  0  0  0  0  0  0  0
  -11.6148  -18.5085   11.5823 C   0  0  0  0  0  0  0  0  0  0  0  0
  -12.3947  -18.2810   12.5004 O   0  0  0  0  0  0  0  0  0  0  0  0
  -10.3031  -17.8985   11.4902 C   0  0  0  0  0  0  0  0  0  0  0  0
   -9.1673  -18.4974   10.9931 C   0  0  0  0  0  0  0  0  0  0  0  0
   -8.1448  -17.6055   11.0758 O   0  0  0  0  0  0  0  0  0  0  0  0
   -8.7110  -16.4917   11.6237 C   0  0  0  0  0  0  0  0  0  0  0  0
   -9.9933  -16.6110   11.8915 N   0  0  0  0  0  0  0  0  0  0  0  0
   -7.9611  -15.3718   11.8549 N   0  0  0  0  0  0  0  0  0  0  0  0
   -8.5046  -14.1249   12.0676 C   0  0  0  0  0  0  0  0  0  0  0  0
   -9.6950  -13.8313   12.1035 O   0  0  0  0  0  0  0  0  0  0  0  0
   -7.4448  -13.0785   12.3021 C   0  0  0  0  0  0  0  0  0  0  0  0
  1  2  1  0
  2  3  1  0
  3  4  1  0
  4  5  2  0
  4  6  1  0
  6  7  2  0
  6 10  1  0
  7  8  1  0
  8  9  1  0
  9 10  2  0
  9 11  1  0
 11 12  1  0
 12 13  2  0
 12 14  1  0
M  END
>  <Gold.Gold.Protein.RotatedWaterAtoms>  (222) 


>  <Gold.Id.Protein>  (222) 


>  <Gold.PLP.Chemscore.CHOScore>  (222) 
0.0000

>  <Gold.PLP.Chemscore.Hbond>  (222) 
2.0000

>  <Gold.PLP.Chemscore.Internal.Correction>  (222) 
0.0053

>  <Gold.PLP.Chemscore.Metal>  (222) 
0.0000

>  <Gold.PLP.Fitness>  (222) 
36.8047

>  <Gold.PLP.PLP>  (222) 
-32.7996

>  <Gold.PLP.ligand.clash>  (222) 
0.0000

>  <Gold.PLP.ligand.torsion>  (222) 
1.0001

>  <Gold.PLP.part.buried>  (222) 
-6.5206

>  <Gold.PLP.part.hbond>  (222) 
-2.9156

>  <Gold.PLP.part.metal>  (222) 
0.0000

>  <Gold.PLP.part.nonpolar>  (222) 
-23.4080

>  <Gold.PLP.part.repulsive>  (222) 
0.3100

>  <Gold.Protein.RotatedAtoms>  (222) 


>  <Gold.Protein.RotatedTorsions>  (222) 


>  <Gold.Protein.RotatedWaterAtoms>  (222) 


>  <Gold.Version>  (222) 
5.3.0

>  <PLP.Chemscore.CHOScore>  (222) 


>  <PLP.Chemscore.Hbond>  (222) 


>  <PLP.Chemscore.Internal.Correction>  (222) 


>  <PLP.Chemscore.Metal>  (222) 


>  <PLP.Fitness>  (222) 


>  <PLP.PLP>  (222) 


>  <PLP.ligand.clash>  (222) 


>  <PLP.ligand.torsion>  (222) 


>  <PLP.part.buried>  (222) 


>  <PLP.part.hbond>  (222) 


>  <PLP.part.metal>  (222) 


>  <PLP.part.nonpolar>  (222) 


>  <PLP.part.repulsive>  (222) 


>  <RMSD>  (222) 
0.499949349045

>  <Torsion>  (222) 
159.973716791

>  <TorsionO>  (222) 
19.1052109979

>  <TorsionR>  (222) 
179.078927789

>  <Version>  (222) 


>  <product>  (222) 
78|Compound_31|Compounds_3D_F|sdf|13|dock4|1

>  <rmsd>  (222) 
-1

$$$$
1884|M3006_1781|Aromatic_primary_amines_F|sdf|361|dock3|1
     RDKit          3D

 31 34  0  0  0  0  0  0  0  0999 V2000
  -14.4210  -19.8971    8.7934 C   0  0  0  0  0  0  0  0  0  0  0  0
  -13.9762  -19.4927   10.1894 C   0  0  0  0  0  0  0  0  0  0  0  0
  -14.1356  -20.6409   11.1817 C   0  0  0  0  0  0  0  0  0  0  0  0
  -13.5197  -20.3070   12.5189 C   0  0  0  0  0  0  0  0  0  0  0  0
  -12.9307  -19.2724   12.7954 O   0  0  0  0  0  0  0  0  0  0  0  0
  -13.7110  -21.3451   13.3845 O   0  0  0  0  0  0  0  0  0  0  0  0
  -12.9425  -21.2698   14.5900 C   0  0  0  0  0  0  0  0  0  0  0  0
  -12.8849  -22.6189   15.2889 C   0  0  0  0  0  0  0  0  0  0  0  0
  -11.6552  -22.4172   16.1494 C   0  0  0  0  0  0  0  0  0  0  0  0
  -11.2420  -23.7410   16.7624 C   0  0  0  0  0  0  0  0  0  0  0  0
  -12.3024  -24.2223   17.5862 O   0  0  0  0  0  0  0  0  0  0  0  0
  -13.7888  -24.3384   16.9603 P   0  0  0  0  0  0  0  0  0  0  0  0
  -14.8775  -24.6795   17.9243 O   0  0  0  0  0  0  0  0  0  0  0  0
  -13.9839  -22.9641   16.1174 O   0  0  0  0  0  0  0  0  0  0  0  0
  -13.5991  -25.4435   15.8075 O   0  0  0  0  0  0  0  0  0  0  0  0
  -10.6922  -21.8161   15.2889 O   0  0  0  0  0  0  0  0  0  0  0  0
  -11.4338  -20.9664   14.3653 C   0  0  0  0  0  0  0  0  0  0  0  0
  -10.9052  -21.2017   13.0342 N   0  0  0  0  0  0  0  0  0  0  0  0
  -10.7814  -22.4114   12.4013 C   0  0  0  0  0  0  0  0  0  0  0  0
  -10.2640  -22.2918   11.1953 N   0  0  0  0  0  0  0  0  0  0  0  0
  -10.0274  -20.9476   11.0424 C   0  0  0  0  0  0  0  0  0  0  0  0
  -10.4203  -20.2487   12.1733 C   0  0  0  0  0  0  0  0  0  0  0  0
  -10.3338  -18.9216   12.3641 N   0  0  0  0  0  0  0  0  0  0  0  0
   -9.8057  -18.2730   11.3024 C   0  0  0  0  0  0  0  0  0  0  0  0
   -9.3808  -18.8370   10.1545 N   0  0  0  0  0  0  0  0  0  0  0  0
   -9.4895  -20.1691   10.0244 C   0  0  0  0  0  0  0  0  0  0  0  0
   -9.0330  -20.6622    8.8349 O   0  0  0  0  0  0  0  0  0  0  0  0
   -9.7222  -16.8901   11.4793 N   0  0  0  0  0  0  0  0  0  0  0  0
   -8.5796  -16.1798   11.7761 C   0  0  0  0  0  0  0  0  0  0  0  0
   -7.4445  -16.6221   11.9131 O   0  0  0  0  0  0  0  0  0  0  0  0
   -8.8524  -14.7024   11.8973 C   0  0  0  0  0  0  0  0  0  0  0  0
  1  2  1  0
  2  3  1  0
  3  4  1  0
  4  5  2  0
  4  6  1  0
  6  7  1  0
  7  8  1  0
  7 17  1  0
  8  9  1  0
  8 14  1  0
  9 10  1  0
  9 16  1  0
 10 11  1  0
 11 12  1  0
 12 13  2  0
 12 14  1  0
 12 15  1  0
 16 17  1  0
 17 18  1  0
 18 19  1  0
 18 22  1  0
 19 20  2  0
 20 21  1  0
 21 22  2  0
 21 26  1  0
 22 23  1  0
 23 24  2  0
 24 25  1  0
 24 28  1  0
 25 26  2  0
 26 27  1  0
 28 29  1  0
 29 30  2  0
 29 31  1  0
M  END
>  <Gold.Gold.Protein.RotatedWaterAtoms>  (223) 


>  <Gold.Id.Protein>  (223) 


>  <Gold.PLP.Chemscore.CHOScore>  (223) 
0.0000

>  <Gold.PLP.Chemscore.Hbond>  (223) 
1.2080

>  <Gold.PLP.Chemscore.Internal.Correction>  (223) 
0.1232

>  <Gold.PLP.Chemscore.Metal>  (223) 
0.0000

>  <Gold.PLP.Fitness>  (223) 
47.7145

>  <Gold.PLP.PLP>  (223) 
-46.0218

>  <Gold.PLP.ligand.clash>  (223) 
0.0000

>  <Gold.PLP.ligand.torsion>  (223) 
1.0272

>  <Gold.PLP.part.buried>  (223) 
-2.2958

>  <Gold.PLP.part.hbond>  (223) 
-4.0214

>  <Gold.PLP.part.metal>  (223) 
0.0000

>  <Gold.PLP.part.nonpolar>  (223) 
-41.4699

>  <Gold.PLP.part.repulsive>  (223) 
0.9524

>  <Gold.Protein.RotatedAtoms>  (223) 


>  <Gold.Protein.RotatedTorsions>  (223) 


>  <Gold.Protein.RotatedWaterAtoms>  (223) 


>  <Gold.Version>  (223) 
5.3.0

>  <PLP.Chemscore.CHOScore>  (223) 


>  <PLP.Chemscore.Hbond>  (223) 


>  <PLP.Chemscore.Internal.Correction>  (223) 


>  <PLP.Chemscore.Metal>  (223) 


>  <PLP.Fitness>  (223) 


>  <PLP.PLP>  (223) 


>  <PLP.ligand.clash>  (223) 


>  <PLP.ligand.torsion>  (223) 


>  <PLP.part.buried>  (223) 


>  <PLP.part.hbond>  (223) 


>  <PLP.part.metal>  (223) 


>  <PLP.part.nonpolar>  (223) 


>  <PLP.part.repulsive>  (223) 


>  <RMSD>  (223) 
0.291955871297

>  <Torsion>  (223) 
171.923704933

>  <TorsionO>  (223) 
6.03609353985

>  <TorsionR>  (223) 
177.959798473

>  <Version>  (223) 


>  <product>  (223) 
78|Compound_31|Compounds_3D_F|sdf|13|dock4|1

>  <rmsd>  (223) 
-1

$$$$
193|32168_281|Aromatic_primary_amines_F|sdf|39|dock6|1
     RDKit          3D

 23 25  0  0  0  0  0  0  0  0999 V2000
   -7.8439  -12.1461   11.8919 C   0  0  0  0  0  0  0  0  0  0  0  0
   -8.5691  -13.4472   11.6781 C   0  0  0  0  0  0  0  0  0  0  0  0
   -9.7886  -13.4981   11.5208 O   0  0  0  0  0  0  0  0  0  0  0  0
   -7.7264  -14.5390   11.7020 N   0  0  0  0  0  0  0  0  0  0  0  0
   -8.1889  -15.8197   11.5323 C   0  0  0  0  0  0  0  0  0  0  0  0
   -9.4747  -16.2039   11.8163 N   0  0  0  0  0  0  0  0  0  0  0  0
   -9.5964  -17.5375   11.5379 C   0  0  0  0  0  0  0  0  0  0  0  0
  -10.6643  -18.4283   11.6415 C   0  0  0  0  0  0  0  0  0  0  0  0
  -10.4051  -19.7586   11.2778 C   0  0  0  0  0  0  0  0  0  0  0  0
   -9.1530  -20.1507   10.7795 C   0  0  0  0  0  0  0  0  0  0  0  0
   -8.1017  -19.2294   10.6839 C   0  0  0  0  0  0  0  0  0  0  0  0
   -8.3349  -17.9032   11.0783 C   0  0  0  0  0  0  0  0  0  0  0  0
   -7.4773  -16.8281   11.0838 N   0  0  0  0  0  0  0  0  0  0  0  0
   -8.8530  -21.7658   10.2429 Cl  0  0  0  0  0  0  0  0  0  0  0  0
  -11.4669  -20.6323   11.3734 O   0  0  0  0  0  0  0  0  0  0  0  0
  -12.5262  -20.4408   10.5053 C   0  0  0  0  0  0  0  0  0  0  0  0
  -13.3188  -19.2846   10.5304 C   0  0  0  0  0  0  0  0  0  0  0  0
  -14.3665  -19.1344    9.6224 C   0  0  0  0  0  0  0  0  0  0  0  0
  -14.6219  -20.1279    8.6796 C   0  0  0  0  0  0  0  0  0  0  0  0
  -13.8238  -21.2756    8.6345 C   0  0  0  0  0  0  0  0  0  0  0  0
  -12.7674  -21.4342    9.5416 C   0  0  0  0  0  0  0  0  0  0  0  0
  -11.7588  -22.8458    9.4996 Cl  0  0  0  0  0  0  0  0  0  0  0  0
  -14.1988  -22.4584    7.4296 Cl  0  0  0  0  0  0  0  0  0  0  0  0
  1  2  1  0
  2  3  2  0
  2  4  1  0
  4  5  1  0
  5  6  1  0
  5 13  2  0
  6  7  1  0
  7  8  2  0
  7 12  1  0
  8  9  1  0
  9 10  2  0
  9 15  1  0
 10 11  1  0
 10 14  1  0
 11 12  2  0
 12 13  1  0
 15 16  1  0
 16 17  2  0
 16 21  1  0
 17 18  1  0
 18 19  2  0
 19 20  1  0
 20 21  2  0
 20 23  1  0
 21 22  1  0
M  END
>  <Gold.Gold.Protein.RotatedWaterAtoms>  (224) 


>  <Gold.Id.Protein>  (224) 


>  <Gold.PLP.Chemscore.CHOScore>  (224) 
0.0000

>  <Gold.PLP.Chemscore.Hbond>  (224) 
1.0000

>  <Gold.PLP.Chemscore.Internal.Correction>  (224) 
0.0086

>  <Gold.PLP.Chemscore.Metal>  (224) 
0.0000

>  <Gold.PLP.Fitness>  (224) 
50.7139

>  <Gold.PLP.PLP>  (224) 
-48.1706

>  <Gold.PLP.ligand.clash>  (224) 
0.0000

>  <Gold.PLP.ligand.torsion>  (224) 
0.2327

>  <Gold.PLP.part.buried>  (224) 
-6.5205

>  <Gold.PLP.part.hbond>  (224) 
-2.0000

>  <Gold.PLP.part.metal>  (224) 
0.0000

>  <Gold.PLP.part.nonpolar>  (224) 
-39.3857

>  <Gold.PLP.part.repulsive>  (224) 
0.3298

>  <Gold.Protein.RotatedAtoms>  (224) 


>  <Gold.Protein.RotatedTorsions>  (224) 


>  <Gold.Protein.RotatedWaterAtoms>  (224) 


>  <Gold.Version>  (224) 
5.3.0

>  <PLP.Chemscore.CHOScore>  (224) 


>  <PLP.Chemscore.Hbond>  (224) 


>  <PLP.Chemscore.Internal.Correction>  (224) 


>  <PLP.Chemscore.Metal>  (224) 


>  <PLP.Fitness>  (224) 


>  <PLP.PLP>  (224) 


>  <PLP.ligand.clash>  (224) 


>  <PLP.ligand.torsion>  (224) 


>  <PLP.part.buried>  (224) 


>  <PLP.part.hbond>  (224) 


>  <PLP.part.metal>  (224) 


>  <PLP.part.nonpolar>  (224) 


>  <PLP.part.repulsive>  (224) 


>  <RMSD>  (224) 
0.439733510035

>  <Torsion>  (224) 
177.672185574

>  <TorsionO>  (224) 
4.31728583372

>  <TorsionR>  (224) 
173.35489974

>  <Version>  (224) 


>  <product>  (224) 
78|Compound_31|Compounds_3D_F|sdf|13|dock4|1

>  <rmsd>  (224) 
-1

$$$$
94|Compound_34|Compounds_3D_F|sdf|15|dock5|1
     RDKit          3D

 10  9  0  0  0  0  0  0  0  0999 V2000
   -5.0899  -12.2722   13.0288 O   0  0  0  0  0  0  0  0  0  0  0  0
   -6.3289  -12.2522   12.5150 C   0  0  0  0  0  0  0  0  0  0  0  0
   -6.7864  -11.2221   12.0780 O   0  0  0  0  0  0  0  0  0  0  0  0
   -7.1521  -13.5144   12.4830 C   0  0  0  0  0  0  0  0  0  0  0  0
   -6.6063  -14.4293   11.4773 N   0  0  0  0  0  0  0  0  0  0  0  0
   -6.1237  -15.6313   11.8506 C   0  0  0  0  0  0  0  0  0  0  0  0
   -6.1409  -15.9554   13.0184 O   0  0  0  0  0  0  0  0  0  0  0  0
   -5.5386  -16.6106   10.7726 B   0  0  0  0  0  0  0  0  0  0  0  0
   -8.6000  -13.1703   12.1268 C   0  0  0  0  0  0  0  0  0  0  0  0
   -9.4528  -14.2549   12.4992 O   0  0  0  0  0  0  0  0  0  0  0  0
  1  2  1  0
  2  3  2  0
  2  4  1  0
  4  5  1  0
  4  9  1  0
  5  6  1  0
  6  7  2  0
  6  8  1  0
  9 10  1  0
M  END
>  <Gold.Gold.Protein.RotatedWaterAtoms>  (225) 


>  <Gold.Id.Protein>  (225) 


>  <Gold.PLP.Chemscore.CHOScore>  (225) 
0.0000

>  <Gold.PLP.Chemscore.Hbond>  (225) 
2.4375

>  <Gold.PLP.Chemscore.Internal.Correction>  (225) 
0.0005

>  <Gold.PLP.Chemscore.Metal>  (225) 
0.0000

>  <Gold.PLP.Fitness>  (225) 
32.4816

>  <Gold.PLP.PLP>  (225) 
-25.9705

>  <Gold.PLP.ligand.clash>  (225) 
0.0000

>  <Gold.PLP.ligand.torsion>  (225) 
0.4010

>  <Gold.PLP.part.buried>  (225) 
-7.9245

>  <Gold.PLP.part.hbond>  (225) 
-4.0965

>  <Gold.PLP.part.metal>  (225) 
0.0000

>  <Gold.PLP.part.nonpolar>  (225) 
-15.1261

>  <Gold.PLP.part.repulsive>  (225) 
0.3917

>  <Gold.Protein.RotatedAtoms>  (225) 


>  <Gold.Protein.RotatedTorsions>  (225) 


>  <Gold.Protein.RotatedWaterAtoms>  (225) 


>  <Gold.Version>  (225) 
5.3.0

>  <PLP.Chemscore.CHOScore>  (225) 


>  <PLP.Chemscore.Hbond>  (225) 


>  <PLP.Chemscore.Internal.Correction>  (225) 


>  <PLP.Chemscore.Metal>  (225) 


>  <PLP.Fitness>  (225) 


>  <PLP.PLP>  (225) 


>  <PLP.ligand.clash>  (225) 


>  <PLP.ligand.torsion>  (225) 


>  <PLP.part.buried>  (225) 


>  <PLP.part.hbond>  (225) 


>  <PLP.part.metal>  (225) 


>  <PLP.part.nonpolar>  (225) 


>  <PLP.part.repulsive>  (225) 


>  <Version>  (225) 


$$$$
94|664022_40|Aromatic_carboxylic_acids_F|sdf|24|dock1|1
     RDKit          3D

 12 12  0  0  0  0  0  0  0  0999 V2000
   -8.2596  -17.1212   11.4595 C   0  0  0  0  0  0  0  0  0  0  0  0
   -7.6366  -15.8367   11.6688 N   0  0  0  0  0  0  0  0  0  0  0  0
   -8.3409  -14.6553   11.5719 C   0  0  0  0  0  0  0  0  0  0  0  0
   -9.5296  -14.5547   11.2978 O   0  0  0  0  0  0  0  0  0  0  0  0
   -7.5420  -13.4431   11.8503 C   0  0  0  0  0  0  0  0  0  0  0  0
   -8.1627  -12.1983   11.6738 C   0  0  0  0  0  0  0  0  0  0  0  0
   -7.4390  -11.0301   11.9055 C   0  0  0  0  0  0  0  0  0  0  0  0
   -6.1069  -11.0910   12.3103 C   0  0  0  0  0  0  0  0  0  0  0  0
   -5.4897  -12.3324   12.4853 C   0  0  0  0  0  0  0  0  0  0  0  0
   -6.2035  -13.5136   12.2549 C   0  0  0  0  0  0  0  0  0  0  0  0
   -5.3062  -15.1564   12.5638 Br  0  0  0  0  0  0  0  0  0  0  0  0
   -8.1960   -9.5005   11.6887 Cl  0  0  0  0  0  0  0  0  0  0  0  0
  1  2  1  0
  2  3  1  0
  3  4  2  0
  3  5  1  0
  5  6  2  0
  5 10  1  0
  6  7  1  0
  7  8  2  0
  7 12  1  0
  8  9  1  0
  9 10  2  0
 10 11  1  0
M  END
>  <Gold.Gold.Protein.RotatedWaterAtoms>  (226) 


>  <Gold.Id.Protein>  (226) 


>  <Gold.PLP.Chemscore.CHOScore>  (226) 
0.0000

>  <Gold.PLP.Chemscore.Hbond>  (226) 
0.4160

>  <Gold.PLP.Chemscore.Internal.Correction>  (226) 
0.0004

>  <Gold.PLP.Chemscore.Metal>  (226) 
0.0000

>  <Gold.PLP.Fitness>  (226) 
48.9046

>  <Gold.PLP.PLP>  (226) 
-47.6744

>  <Gold.PLP.ligand.clash>  (226) 
0.0000

>  <Gold.PLP.ligand.torsion>  (226) 
0.0091

>  <Gold.PLP.part.buried>  (226) 
-7.3578

>  <Gold.PLP.part.hbond>  (226) 
-0.5127

>  <Gold.PLP.part.metal>  (226) 
0.0000

>  <Gold.PLP.part.nonpolar>  (226) 
-40.3098

>  <Gold.PLP.part.repulsive>  (226) 
0.1684

>  <Gold.Protein.RotatedAtoms>  (226) 


>  <Gold.Protein.RotatedTorsions>  (226) 


>  <Gold.Protein.RotatedWaterAtoms>  (226) 


>  <Gold.Version>  (226) 
5.3.0

>  <PLP.Chemscore.CHOScore>  (226) 


>  <PLP.Chemscore.Hbond>  (226) 


>  <PLP.Chemscore.Internal.Correction>  (226) 


>  <PLP.Chemscore.Metal>  (226) 


>  <PLP.Fitness>  (226) 


>  <PLP.PLP>  (226) 


>  <PLP.ligand.clash>  (226) 


>  <PLP.ligand.torsion>  (226) 


>  <PLP.part.buried>  (226) 


>  <PLP.part.hbond>  (226) 


>  <PLP.part.metal>  (226) 


>  <PLP.part.nonpolar>  (226) 


>  <PLP.part.repulsive>  (226) 


>  <RMSD>  (226) 
0.30972197429

>  <Torsion>  (226) 
172.929186758

>  <TorsionO>  (226) 
24.4968065243

>  <TorsionR>  (226) 
162.574006718

>  <Version>  (226) 


>  <product>  (226) 
94|Compound_34|Compounds_3D_F|sdf|15|dock5|1

>  <rmsd>  (226) 
-1

$$$$
110|565385_49|Aromatic_carboxylic_acids_F|sdf|29|dock1|1
     RDKit          3D

 13 13  0  0  0  0  0  0  0  0999 V2000
  -10.1118  -17.9021   11.6320 C   0  0  0  0  0  0  0  0  0  0  0  0
   -9.7537  -16.5043   11.6546 N   0  0  0  0  0  0  0  0  0  0  0  0
   -8.4330  -16.1187   11.7930 C   0  0  0  0  0  0  0  0  0  0  0  0
   -7.5159  -16.9298   11.9008 O   0  0  0  0  0  0  0  0  0  0  0  0
   -8.1234  -14.6552   11.8105 C   0  0  0  0  0  0  0  0  0  0  0  0
   -9.0636  -13.6551   11.5375 C   0  0  0  0  0  0  0  0  0  0  0  0
   -8.6966  -12.3009   11.5726 C   0  0  0  0  0  0  0  0  0  0  0  0
   -7.3879  -11.9195   11.8809 C   0  0  0  0  0  0  0  0  0  0  0  0
   -6.4486  -12.9235   12.1551 C   0  0  0  0  0  0  0  0  0  0  0  0
   -6.8098  -14.2750   12.1207 C   0  0  0  0  0  0  0  0  0  0  0  0
   -4.6444  -12.5025   12.5849 Br  0  0  0  0  0  0  0  0  0  0  0  0
   -6.9476  -10.6242   11.9372 O   0  0  0  0  0  0  0  0  0  0  0  0
   -7.9020   -9.5910   11.7256 C   0  0  0  0  0  0  0  0  0  0  0  0
  1  2  1  0
  2  3  1  0
  3  4  2  0
  3  5  1  0
  5  6  2  0
  5 10  1  0
  6  7  1  0
  7  8  2  0
  8  9  1  0
  8 12  1  0
  9 10  2  0
  9 11  1  0
 12 13  1  0
M  END
>  <Gold.Gold.Protein.RotatedWaterAtoms>  (227) 


>  <Gold.Id.Protein>  (227) 


>  <Gold.PLP.Chemscore.CHOScore>  (227) 
0.0000

>  <Gold.PLP.Chemscore.Hbond>  (227) 
1.0000

>  <Gold.PLP.Chemscore.Internal.Correction>  (227) 
0.0000

>  <Gold.PLP.Chemscore.Metal>  (227) 
0.0000

>  <Gold.PLP.Fitness>  (227) 
43.9775

>  <Gold.PLP.PLP>  (227) 
-41.0517

>  <Gold.PLP.ligand.clash>  (227) 
0.0000

>  <Gold.PLP.ligand.torsion>  (227) 
0.0371

>  <Gold.PLP.part.buried>  (227) 
-3.7367

>  <Gold.PLP.part.hbond>  (227) 
-1.0000

>  <Gold.PLP.part.metal>  (227) 
0.0000

>  <Gold.PLP.part.nonpolar>  (227) 
-36.7483

>  <Gold.PLP.part.repulsive>  (227) 
0.4054

>  <Gold.Protein.RotatedAtoms>  (227) 


>  <Gold.Protein.RotatedTorsions>  (227) 


>  <Gold.Protein.RotatedWaterAtoms>  (227) 


>  <Gold.Version>  (227) 
5.3.0

>  <PLP.Chemscore.CHOScore>  (227) 


>  <PLP.Chemscore.Hbond>  (227) 


>  <PLP.Chemscore.Internal.Correction>  (227) 


>  <PLP.Chemscore.Metal>  (227) 


>  <PLP.Fitness>  (227) 


>  <PLP.PLP>  (227) 


>  <PLP.ligand.clash>  (227) 


>  <PLP.ligand.torsion>  (227) 


>  <PLP.part.buried>  (227) 


>  <PLP.part.hbond>  (227) 


>  <PLP.part.metal>  (227) 


>  <PLP.part.nonpolar>  (227) 


>  <PLP.part.repulsive>  (227) 


>  <RMSD>  (227) 
0.319376411377

>  <Torsion>  (227) 
169.460450784

>  <TorsionO>  (227) 
9.7963905484

>  <TorsionR>  (227) 
179.256841332

>  <Version>  (227) 


>  <product>  (227) 
94|Compound_34|Compounds_3D_F|sdf|15|dock5|1

>  <rmsd>  (227) 
-1

$$$$
128|137677_56|Aromatic_carboxylic_acids_F|sdf|33|dock1|1
     RDKit          3D

 11 11  0  0  0  0  0  0  0  0999 V2000
   -8.6116  -16.1544   11.8887 C   0  0  0  0  0  0  0  0  0  0  0  0
   -7.9978  -14.8484   11.9215 N   0  0  0  0  0  0  0  0  0  0  0  0
   -8.7778  -13.7008   11.8756 C   0  0  0  0  0  0  0  0  0  0  0  0
  -10.0002  -13.7896   11.8139 O   0  0  0  0  0  0  0  0  0  0  0  0
   -8.0808  -12.3609   11.9017 C   0  0  0  0  0  0  0  0  0  0  0  0
   -8.7916  -11.1851   11.5813 C   0  0  0  0  0  0  0  0  0  0  0  0
   -8.1781   -9.9267   11.5989 C   0  0  0  0  0  0  0  0  0  0  0  0
   -6.8391   -9.8089   11.9369 C   0  0  0  0  0  0  0  0  0  0  0  0
   -6.1124  -10.9502   12.2575 C   0  0  0  0  0  0  0  0  0  0  0  0
   -6.7171  -12.2196   12.2428 C   0  0  0  0  0  0  0  0  0  0  0  0
   -5.5419  -13.6455   12.7121 Br  0  0  0  0  0  0  0  0  0  0  0  0
  1  2  1  0
  2  3  1  0
  3  4  2  0
  3  5  1  0
  5  6  2  0
  5 10  1  0
  6  7  1  0
  7  8  2  0
  8  9  1  0
  9 10  2  0
 10 11  1  0
M  END
>  <Gold.Gold.Protein.RotatedWaterAtoms>  (228) 


>  <Gold.Id.Protein>  (228) 


>  <Gold.PLP.Chemscore.CHOScore>  (228) 
0.0000

>  <Gold.PLP.Chemscore.Hbond>  (228) 
1.0000

>  <Gold.PLP.Chemscore.Internal.Correction>  (228) 
0.0000

>  <Gold.PLP.Chemscore.Metal>  (228) 
0.0000

>  <Gold.PLP.Fitness>  (228) 
45.2899

>  <Gold.PLP.PLP>  (228) 
-42.4444

>  <Gold.PLP.ligand.clash>  (228) 
0.0000

>  <Gold.PLP.ligand.torsion>  (228) 
0.0772

>  <Gold.PLP.part.buried>  (228) 
-6.4690

>  <Gold.PLP.part.hbond>  (228) 
-0.6863

>  <Gold.PLP.part.metal>  (228) 
0.0000

>  <Gold.PLP.part.nonpolar>  (228) 
-34.8280

>  <Gold.PLP.part.repulsive>  (228) 
0.1963

>  <Gold.Protein.RotatedAtoms>  (228) 


>  <Gold.Protein.RotatedTorsions>  (228) 


>  <Gold.Protein.RotatedWaterAtoms>  (228) 


>  <Gold.Version>  (228) 
5.3.0

>  <PLP.Chemscore.CHOScore>  (228) 


>  <PLP.Chemscore.Hbond>  (228) 


>  <PLP.Chemscore.Internal.Correction>  (228) 


>  <PLP.Chemscore.Metal>  (228) 


>  <PLP.Fitness>  (228) 


>  <PLP.PLP>  (228) 


>  <PLP.ligand.clash>  (228) 


>  <PLP.ligand.torsion>  (228) 


>  <PLP.part.buried>  (228) 


>  <PLP.part.hbond>  (228) 


>  <PLP.part.metal>  (228) 


>  <PLP.part.nonpolar>  (228) 


>  <PLP.part.repulsive>  (228) 


>  <RMSD>  (228) 
0.428070490903

>  <Torsion>  (228) 
152.444048788

>  <TorsionO>  (228) 
39.0580871276

>  <TorsionR>  (228) 
168.497864085

>  <Version>  (228) 


>  <product>  (228) 
94|Compound_34|Compounds_3D_F|sdf|15|dock5|1

>  <rmsd>  (228) 
-1

$$$$
974|750794_1404|Aromatic_primary_amines_F|sdf|194|dock3|1
     RDKit          3D

 14 14  0  0  0  0  0  0  0  0999 V2000
  -13.6355  -18.1936    9.4145 C   0  0  0  0  0  0  0  0  0  0  0  0
  -13.2544  -19.4497   10.1732 C   0  0  0  0  0  0  0  0  0  0  0  0
  -11.8731  -19.3506   10.5383 O   0  0  0  0  0  0  0  0  0  0  0  0
  -11.6148  -18.5085   11.5823 C   0  0  0  0  0  0  0  0  0  0  0  0
  -12.3947  -18.2810   12.5004 O   0  0  0  0  0  0  0  0  0  0  0  0
  -10.3031  -17.8985   11.4902 C   0  0  0  0  0  0  0  0  0  0  0  0
   -9.1673  -18.4974   10.9931 C   0  0  0  0  0  0  0  0  0  0  0  0
   -8.1448  -17.6055   11.0758 O   0  0  0  0  0  0  0  0  0  0  0  0
   -8.7110  -16.4917   11.6237 C   0  0  0  0  0  0  0  0  0  0  0  0
   -9.9933  -16.6110   11.8915 N   0  0  0  0  0  0  0  0  0  0  0  0
   -7.9611  -15.3718   11.8549 N   0  0  0  0  0  0  0  0  0  0  0  0
   -8.5046  -14.1249   12.0676 C   0  0  0  0  0  0  0  0  0  0  0  0
   -9.6950  -13.8313   12.1035 O   0  0  0  0  0  0  0  0  0  0  0  0
   -7.4448  -13.0785   12.3021 C   0  0  0  0  0  0  0  0  0  0  0  0
  1  2  1  0
  2  3  1  0
  3  4  1  0
  4  5  2  0
  4  6  1  0
  6  7  2  0
  6 10  1  0
  7  8  1  0
  8  9  1  0
  9 10  2  0
  9 11  1  0
 11 12  1  0
 12 13  2  0
 12 14  1  0
M  END
>  <Gold.Gold.Protein.RotatedWaterAtoms>  (229) 


>  <Gold.Id.Protein>  (229) 


>  <Gold.PLP.Chemscore.CHOScore>  (229) 
0.0000

>  <Gold.PLP.Chemscore.Hbond>  (229) 
2.0000

>  <Gold.PLP.Chemscore.Internal.Correction>  (229) 
0.0053

>  <Gold.PLP.Chemscore.Metal>  (229) 
0.0000

>  <Gold.PLP.Fitness>  (229) 
36.8047

>  <Gold.PLP.PLP>  (229) 
-32.7996

>  <Gold.PLP.ligand.clash>  (229) 
0.0000

>  <Gold.PLP.ligand.torsion>  (229) 
1.0001

>  <Gold.PLP.part.buried>  (229) 
-6.5206

>  <Gold.PLP.part.hbond>  (229) 
-2.9156

>  <Gold.PLP.part.metal>  (229) 
0.0000

>  <Gold.PLP.part.nonpolar>  (229) 
-23.4080

>  <Gold.PLP.part.repulsive>  (229) 
0.3100

>  <Gold.Protein.RotatedAtoms>  (229) 


>  <Gold.Protein.RotatedTorsions>  (229) 


>  <Gold.Protein.RotatedWaterAtoms>  (229) 


>  <Gold.Version>  (229) 
5.3.0

>  <PLP.Chemscore.CHOScore>  (229) 


>  <PLP.Chemscore.Hbond>  (229) 


>  <PLP.Chemscore.Internal.Correction>  (229) 


>  <PLP.Chemscore.Metal>  (229) 


>  <PLP.Fitness>  (229) 


>  <PLP.PLP>  (229) 


>  <PLP.ligand.clash>  (229) 


>  <PLP.ligand.torsion>  (229) 


>  <PLP.part.buried>  (229) 


>  <PLP.part.hbond>  (229) 


>  <PLP.part.metal>  (229) 


>  <PLP.part.nonpolar>  (229) 


>  <PLP.part.repulsive>  (229) 


>  <RMSD>  (229) 
0.499949349045

>  <Torsion>  (229) 
159.973716791

>  <TorsionO>  (229) 
19.1052109979

>  <TorsionR>  (229) 
179.078927789

>  <Version>  (229) 


>  <product>  (229) 
94|Compound_34|Compounds_3D_F|sdf|15|dock5|1

>  <rmsd>  (229) 
-1

$$$$
1884|M3006_1781|Aromatic_primary_amines_F|sdf|361|dock3|1
     RDKit          3D

 31 34  0  0  0  0  0  0  0  0999 V2000
  -14.4210  -19.8971    8.7934 C   0  0  0  0  0  0  0  0  0  0  0  0
  -13.9762  -19.4927   10.1894 C   0  0  0  0  0  0  0  0  0  0  0  0
  -14.1356  -20.6409   11.1817 C   0  0  0  0  0  0  0  0  0  0  0  0
  -13.5197  -20.3070   12.5189 C   0  0  0  0  0  0  0  0  0  0  0  0
  -12.9307  -19.2724   12.7954 O   0  0  0  0  0  0  0  0  0  0  0  0
  -13.7110  -21.3451   13.3845 O   0  0  0  0  0  0  0  0  0  0  0  0
  -12.9425  -21.2698   14.5900 C   0  0  0  0  0  0  0  0  0  0  0  0
  -12.8849  -22.6189   15.2889 C   0  0  0  0  0  0  0  0  0  0  0  0
  -11.6552  -22.4172   16.1494 C   0  0  0  0  0  0  0  0  0  0  0  0
  -11.2420  -23.7410   16.7624 C   0  0  0  0  0  0  0  0  0  0  0  0
  -12.3024  -24.2223   17.5862 O   0  0  0  0  0  0  0  0  0  0  0  0
  -13.7888  -24.3384   16.9603 P   0  0  0  0  0  0  0  0  0  0  0  0
  -14.8775  -24.6795   17.9243 O   0  0  0  0  0  0  0  0  0  0  0  0
  -13.9839  -22.9641   16.1174 O   0  0  0  0  0  0  0  0  0  0  0  0
  -13.5991  -25.4435   15.8075 O   0  0  0  0  0  0  0  0  0  0  0  0
  -10.6922  -21.8161   15.2889 O   0  0  0  0  0  0  0  0  0  0  0  0
  -11.4338  -20.9664   14.3653 C   0  0  0  0  0  0  0  0  0  0  0  0
  -10.9052  -21.2017   13.0342 N   0  0  0  0  0  0  0  0  0  0  0  0
  -10.7814  -22.4114   12.4013 C   0  0  0  0  0  0  0  0  0  0  0  0
  -10.2640  -22.2918   11.1953 N   0  0  0  0  0  0  0  0  0  0  0  0
  -10.0274  -20.9476   11.0424 C   0  0  0  0  0  0  0  0  0  0  0  0
  -10.4203  -20.2487   12.1733 C   0  0  0  0  0  0  0  0  0  0  0  0
  -10.3338  -18.9216   12.3641 N   0  0  0  0  0  0  0  0  0  0  0  0
   -9.8057  -18.2730   11.3024 C   0  0  0  0  0  0  0  0  0  0  0  0
   -9.3808  -18.8370   10.1545 N   0  0  0  0  0  0  0  0  0  0  0  0
   -9.4895  -20.1691   10.0244 C   0  0  0  0  0  0  0  0  0  0  0  0
   -9.0330  -20.6622    8.8349 O   0  0  0  0  0  0  0  0  0  0  0  0
   -9.7222  -16.8901   11.4793 N   0  0  0  0  0  0  0  0  0  0  0  0
   -8.5796  -16.1798   11.7761 C   0  0  0  0  0  0  0  0  0  0  0  0
   -7.4445  -16.6221   11.9131 O   0  0  0  0  0  0  0  0  0  0  0  0
   -8.8524  -14.7024   11.8973 C   0  0  0  0  0  0  0  0  0  0  0  0
  1  2  1  0
  2  3  1  0
  3  4  1  0
  4  5  2  0
  4  6  1  0
  6  7  1  0
  7  8  1  0
  7 17  1  0
  8  9  1  0
  8 14  1  0
  9 10  1  0
  9 16  1  0
 10 11  1  0
 11 12  1  0
 12 13  2  0
 12 14  1  0
 12 15  1  0
 16 17  1  0
 17 18  1  0
 18 19  1  0
 18 22  1  0
 19 20  2  0
 20 21  1  0
 21 22  2  0
 21 26  1  0
 22 23  1  0
 23 24  2  0
 24 25  1  0
 24 28  1  0
 25 26  2  0
 26 27  1  0
 28 29  1  0
 29 30  2  0
 29 31  1  0
M  END
>  <Gold.Gold.Protein.RotatedWaterAtoms>  (230) 


>  <Gold.Id.Protein>  (230) 


>  <Gold.PLP.Chemscore.CHOScore>  (230) 
0.0000

>  <Gold.PLP.Chemscore.Hbond>  (230) 
1.2080

>  <Gold.PLP.Chemscore.Internal.Correction>  (230) 
0.1232

>  <Gold.PLP.Chemscore.Metal>  (230) 
0.0000

>  <Gold.PLP.Fitness>  (230) 
47.7145

>  <Gold.PLP.PLP>  (230) 
-46.0218

>  <Gold.PLP.ligand.clash>  (230) 
0.0000

>  <Gold.PLP.ligand.torsion>  (230) 
1.0272

>  <Gold.PLP.part.buried>  (230) 
-2.2958

>  <Gold.PLP.part.hbond>  (230) 
-4.0214

>  <Gold.PLP.part.metal>  (230) 
0.0000

>  <Gold.PLP.part.nonpolar>  (230) 
-41.4699

>  <Gold.PLP.part.repulsive>  (230) 
0.9524

>  <Gold.Protein.RotatedAtoms>  (230) 


>  <Gold.Protein.RotatedTorsions>  (230) 


>  <Gold.Protein.RotatedWaterAtoms>  (230) 


>  <Gold.Version>  (230) 
5.3.0

>  <PLP.Chemscore.CHOScore>  (230) 


>  <PLP.Chemscore.Hbond>  (230) 


>  <PLP.Chemscore.Internal.Correction>  (230) 


>  <PLP.Chemscore.Metal>  (230) 


>  <PLP.Fitness>  (230) 


>  <PLP.PLP>  (230) 


>  <PLP.ligand.clash>  (230) 


>  <PLP.ligand.torsion>  (230) 


>  <PLP.part.buried>  (230) 


>  <PLP.part.hbond>  (230) 


>  <PLP.part.metal>  (230) 


>  <PLP.part.nonpolar>  (230) 


>  <PLP.part.repulsive>  (230) 


>  <RMSD>  (230) 
0.291955871297

>  <Torsion>  (230) 
171.923704933

>  <TorsionO>  (230) 
6.03609353985

>  <TorsionR>  (230) 
177.959798473

>  <Version>  (230) 


>  <product>  (230) 
94|Compound_34|Compounds_3D_F|sdf|15|dock5|1

>  <rmsd>  (230) 
-1

$$$$
193|32168_281|Aromatic_primary_amines_F|sdf|39|dock6|1
     RDKit          3D

 23 25  0  0  0  0  0  0  0  0999 V2000
   -7.8439  -12.1461   11.8919 C   0  0  0  0  0  0  0  0  0  0  0  0
   -8.5691  -13.4472   11.6781 C   0  0  0  0  0  0  0  0  0  0  0  0
   -9.7886  -13.4981   11.5208 O   0  0  0  0  0  0  0  0  0  0  0  0
   -7.7264  -14.5390   11.7020 N   0  0  0  0  0  0  0  0  0  0  0  0
   -8.1889  -15.8197   11.5323 C   0  0  0  0  0  0  0  0  0  0  0  0
   -9.4747  -16.2039   11.8163 N   0  0  0  0  0  0  0  0  0  0  0  0
   -9.5964  -17.5375   11.5379 C   0  0  0  0  0  0  0  0  0  0  0  0
  -10.6643  -18.4283   11.6415 C   0  0  0  0  0  0  0  0  0  0  0  0
  -10.4051  -19.7586   11.2778 C   0  0  0  0  0  0  0  0  0  0  0  0
   -9.1530  -20.1507   10.7795 C   0  0  0  0  0  0  0  0  0  0  0  0
   -8.1017  -19.2294   10.6839 C   0  0  0  0  0  0  0  0  0  0  0  0
   -8.3349  -17.9032   11.0783 C   0  0  0  0  0  0  0  0  0  0  0  0
   -7.4773  -16.8281   11.0838 N   0  0  0  0  0  0  0  0  0  0  0  0
   -8.8530  -21.7658   10.2429 Cl  0  0  0  0  0  0  0  0  0  0  0  0
  -11.4669  -20.6323   11.3734 O   0  0  0  0  0  0  0  0  0  0  0  0
  -12.5262  -20.4408   10.5053 C   0  0  0  0  0  0  0  0  0  0  0  0
  -13.3188  -19.2846   10.5304 C   0  0  0  0  0  0  0  0  0  0  0  0
  -14.3665  -19.1344    9.6224 C   0  0  0  0  0  0  0  0  0  0  0  0
  -14.6219  -20.1279    8.6796 C   0  0  0  0  0  0  0  0  0  0  0  0
  -13.8238  -21.2756    8.6345 C   0  0  0  0  0  0  0  0  0  0  0  0
  -12.7674  -21.4342    9.5416 C   0  0  0  0  0  0  0  0  0  0  0  0
  -11.7588  -22.8458    9.4996 Cl  0  0  0  0  0  0  0  0  0  0  0  0
  -14.1988  -22.4584    7.4296 Cl  0  0  0  0  0  0  0  0  0  0  0  0
  1  2  1  0
  2  3  2  0
  2  4  1  0
  4  5  1  0
  5  6  1  0
  5 13  2  0
  6  7  1  0
  7  8  2  0
  7 12  1  0
  8  9  1  0
  9 10  2  0
  9 15  1  0
 10 11  1  0
 10 14  1  0
 11 12  2  0
 12 13  1  0
 15 16  1  0
 16 17  2  0
 16 21  1  0
 17 18  1  0
 18 19  2  0
 19 20  1  0
 20 21  2  0
 20 23  1  0
 21 22  1  0
M  END
>  <Gold.Gold.Protein.RotatedWaterAtoms>  (231) 


>  <Gold.Id.Protein>  (231) 


>  <Gold.PLP.Chemscore.CHOScore>  (231) 
0.0000

>  <Gold.PLP.Chemscore.Hbond>  (231) 
1.0000

>  <Gold.PLP.Chemscore.Internal.Correction>  (231) 
0.0086

>  <Gold.PLP.Chemscore.Metal>  (231) 
0.0000

>  <Gold.PLP.Fitness>  (231) 
50.7139

>  <Gold.PLP.PLP>  (231) 
-48.1706

>  <Gold.PLP.ligand.clash>  (231) 
0.0000

>  <Gold.PLP.ligand.torsion>  (231) 
0.2327

>  <Gold.PLP.part.buried>  (231) 
-6.5205

>  <Gold.PLP.part.hbond>  (231) 
-2.0000

>  <Gold.PLP.part.metal>  (231) 
0.0000

>  <Gold.PLP.part.nonpolar>  (231) 
-39.3857

>  <Gold.PLP.part.repulsive>  (231) 
0.3298

>  <Gold.Protein.RotatedAtoms>  (231) 


>  <Gold.Protein.RotatedTorsions>  (231) 


>  <Gold.Protein.RotatedWaterAtoms>  (231) 


>  <Gold.Version>  (231) 
5.3.0

>  <PLP.Chemscore.CHOScore>  (231) 


>  <PLP.Chemscore.Hbond>  (231) 


>  <PLP.Chemscore.Internal.Correction>  (231) 


>  <PLP.Chemscore.Metal>  (231) 


>  <PLP.Fitness>  (231) 


>  <PLP.PLP>  (231) 


>  <PLP.ligand.clash>  (231) 


>  <PLP.ligand.torsion>  (231) 


>  <PLP.part.buried>  (231) 


>  <PLP.part.hbond>  (231) 


>  <PLP.part.metal>  (231) 


>  <PLP.part.nonpolar>  (231) 


>  <PLP.part.repulsive>  (231) 


>  <RMSD>  (231) 
0.439733510035

>  <Torsion>  (231) 
177.672185574

>  <TorsionO>  (231) 
4.31728583372

>  <TorsionR>  (231) 
173.35489974

>  <Version>  (231) 


>  <product>  (231) 
94|Compound_34|Compounds_3D_F|sdf|15|dock5|1

>  <rmsd>  (231) 
-1

$$$$
93|Compound_34|Compounds_3D_F|sdf|15|dock4|1
     RDKit          3D

 10  9  0  0  0  0  0  0  0  0999 V2000
   -4.6314  -12.1579   13.0355 O   0  0  0  0  0  0  0  0  0  0  0  0
   -5.8511  -12.4195   12.5420 C   0  0  0  0  0  0  0  0  0  0  0  0
   -6.5498  -11.5164   12.1449 O   0  0  0  0  0  0  0  0  0  0  0  0
   -6.3517  -13.8399   12.4830 C   0  0  0  0  0  0  0  0  0  0  0  0
   -5.4858  -14.6277   11.6020 N   0  0  0  0  0  0  0  0  0  0  0  0
   -5.5674  -15.9732   11.6039 C   0  0  0  0  0  0  0  0  0  0  0  0
   -6.3567  -16.5317   12.3348 O   0  0  0  0  0  0  0  0  0  0  0  0
   -4.6390  -16.8164   10.6603 B   0  0  0  0  0  0  0  0  0  0  0  0
   -7.7817  -13.8548   11.9385 C   0  0  0  0  0  0  0  0  0  0  0  0
   -8.6927  -13.5060   12.9829 O   0  0  0  0  0  0  0  0  0  0  0  0
  1  2  1  0
  2  3  2  0
  2  4  1  0
  4  5  1  0
  4  9  1  0
  5  6  1  0
  6  7  2  0
  6  8  1  0
  9 10  1  0
M  END
>  <Gold.Gold.Protein.RotatedWaterAtoms>  (232) 


>  <Gold.Id.Protein>  (232) 


>  <Gold.PLP.Chemscore.CHOScore>  (232) 
0.0000

>  <Gold.PLP.Chemscore.Hbond>  (232) 
2.7473

>  <Gold.PLP.Chemscore.Internal.Correction>  (232) 
0.0005

>  <Gold.PLP.Chemscore.Metal>  (232) 
0.0000

>  <Gold.PLP.Fitness>  (232) 
34.5170

>  <Gold.PLP.PLP>  (232) 
-26.9812

>  <Gold.PLP.ligand.clash>  (232) 
0.0000

>  <Gold.PLP.ligand.torsion>  (232) 
0.3532

>  <Gold.PLP.part.buried>  (232) 
-7.7920

>  <Gold.PLP.part.hbond>  (232) 
-4.8001

>  <Gold.PLP.part.metal>  (232) 
0.0000

>  <Gold.PLP.part.nonpolar>  (232) 
-14.9573

>  <Gold.PLP.part.repulsive>  (232) 
0.3483

>  <Gold.Protein.RotatedAtoms>  (232) 


>  <Gold.Protein.RotatedTorsions>  (232) 


>  <Gold.Protein.RotatedWaterAtoms>  (232) 


>  <Gold.Version>  (232) 
5.3.0

>  <PLP.Chemscore.CHOScore>  (232) 


>  <PLP.Chemscore.Hbond>  (232) 


>  <PLP.Chemscore.Internal.Correction>  (232) 


>  <PLP.Chemscore.Metal>  (232) 


>  <PLP.Fitness>  (232) 


>  <PLP.PLP>  (232) 


>  <PLP.ligand.clash>  (232) 


>  <PLP.ligand.torsion>  (232) 


>  <PLP.part.buried>  (232) 


>  <PLP.part.hbond>  (232) 


>  <PLP.part.metal>  (232) 


>  <PLP.part.nonpolar>  (232) 


>  <PLP.part.repulsive>  (232) 


>  <Version>  (232) 


$$$$
94|664022_40|Aromatic_carboxylic_acids_F|sdf|24|dock1|1
     RDKit          3D

 12 12  0  0  0  0  0  0  0  0999 V2000
   -8.2596  -17.1212   11.4595 C   0  0  0  0  0  0  0  0  0  0  0  0
   -7.6366  -15.8367   11.6688 N   0  0  0  0  0  0  0  0  0  0  0  0
   -8.3409  -14.6553   11.5719 C   0  0  0  0  0  0  0  0  0  0  0  0
   -9.5296  -14.5547   11.2978 O   0  0  0  0  0  0  0  0  0  0  0  0
   -7.5420  -13.4431   11.8503 C   0  0  0  0  0  0  0  0  0  0  0  0
   -8.1627  -12.1983   11.6738 C   0  0  0  0  0  0  0  0  0  0  0  0
   -7.4390  -11.0301   11.9055 C   0  0  0  0  0  0  0  0  0  0  0  0
   -6.1069  -11.0910   12.3103 C   0  0  0  0  0  0  0  0  0  0  0  0
   -5.4897  -12.3324   12.4853 C   0  0  0  0  0  0  0  0  0  0  0  0
   -6.2035  -13.5136   12.2549 C   0  0  0  0  0  0  0  0  0  0  0  0
   -5.3062  -15.1564   12.5638 Br  0  0  0  0  0  0  0  0  0  0  0  0
   -8.1960   -9.5005   11.6887 Cl  0  0  0  0  0  0  0  0  0  0  0  0
  1  2  1  0
  2  3  1  0
  3  4  2  0
  3  5  1  0
  5  6  2  0
  5 10  1  0
  6  7  1  0
  7  8  2  0
  7 12  1  0
  8  9  1  0
  9 10  2  0
 10 11  1  0
M  END
>  <Gold.Gold.Protein.RotatedWaterAtoms>  (233) 


>  <Gold.Id.Protein>  (233) 


>  <Gold.PLP.Chemscore.CHOScore>  (233) 
0.0000

>  <Gold.PLP.Chemscore.Hbond>  (233) 
0.4160

>  <Gold.PLP.Chemscore.Internal.Correction>  (233) 
0.0004

>  <Gold.PLP.Chemscore.Metal>  (233) 
0.0000

>  <Gold.PLP.Fitness>  (233) 
48.9046

>  <Gold.PLP.PLP>  (233) 
-47.6744

>  <Gold.PLP.ligand.clash>  (233) 
0.0000

>  <Gold.PLP.ligand.torsion>  (233) 
0.0091

>  <Gold.PLP.part.buried>  (233) 
-7.3578

>  <Gold.PLP.part.hbond>  (233) 
-0.5127

>  <Gold.PLP.part.metal>  (233) 
0.0000

>  <Gold.PLP.part.nonpolar>  (233) 
-40.3098

>  <Gold.PLP.part.repulsive>  (233) 
0.1684

>  <Gold.Protein.RotatedAtoms>  (233) 


>  <Gold.Protein.RotatedTorsions>  (233) 


>  <Gold.Protein.RotatedWaterAtoms>  (233) 


>  <Gold.Version>  (233) 
5.3.0

>  <PLP.Chemscore.CHOScore>  (233) 


>  <PLP.Chemscore.Hbond>  (233) 


>  <PLP.Chemscore.Internal.Correction>  (233) 


>  <PLP.Chemscore.Metal>  (233) 


>  <PLP.Fitness>  (233) 


>  <PLP.PLP>  (233) 


>  <PLP.ligand.clash>  (233) 


>  <PLP.ligand.torsion>  (233) 


>  <PLP.part.buried>  (233) 


>  <PLP.part.hbond>  (233) 


>  <PLP.part.metal>  (233) 


>  <PLP.part.nonpolar>  (233) 


>  <PLP.part.repulsive>  (233) 


>  <RMSD>  (233) 
0.30972197429

>  <Torsion>  (233) 
172.929186758

>  <TorsionO>  (233) 
24.4968065243

>  <TorsionR>  (233) 
162.574006718

>  <Version>  (233) 


>  <product>  (233) 
93|Compound_34|Compounds_3D_F|sdf|15|dock4|1

>  <rmsd>  (233) 
-1

$$$$
110|565385_49|Aromatic_carboxylic_acids_F|sdf|29|dock1|1
     RDKit          3D

 13 13  0  0  0  0  0  0  0  0999 V2000
  -10.1118  -17.9021   11.6320 C   0  0  0  0  0  0  0  0  0  0  0  0
   -9.7537  -16.5043   11.6546 N   0  0  0  0  0  0  0  0  0  0  0  0
   -8.4330  -16.1187   11.7930 C   0  0  0  0  0  0  0  0  0  0  0  0
   -7.5159  -16.9298   11.9008 O   0  0  0  0  0  0  0  0  0  0  0  0
   -8.1234  -14.6552   11.8105 C   0  0  0  0  0  0  0  0  0  0  0  0
   -9.0636  -13.6551   11.5375 C   0  0  0  0  0  0  0  0  0  0  0  0
   -8.6966  -12.3009   11.5726 C   0  0  0  0  0  0  0  0  0  0  0  0
   -7.3879  -11.9195   11.8809 C   0  0  0  0  0  0  0  0  0  0  0  0
   -6.4486  -12.9235   12.1551 C   0  0  0  0  0  0  0  0  0  0  0  0
   -6.8098  -14.2750   12.1207 C   0  0  0  0  0  0  0  0  0  0  0  0
   -4.6444  -12.5025   12.5849 Br  0  0  0  0  0  0  0  0  0  0  0  0
   -6.9476  -10.6242   11.9372 O   0  0  0  0  0  0  0  0  0  0  0  0
   -7.9020   -9.5910   11.7256 C   0  0  0  0  0  0  0  0  0  0  0  0
  1  2  1  0
  2  3  1  0
  3  4  2  0
  3  5  1  0
  5  6  2  0
  5 10  1  0
  6  7  1  0
  7  8  2  0
  8  9  1  0
  8 12  1  0
  9 10  2  0
  9 11  1  0
 12 13  1  0
M  END
>  <Gold.Gold.Protein.RotatedWaterAtoms>  (234) 


>  <Gold.Id.Protein>  (234) 


>  <Gold.PLP.Chemscore.CHOScore>  (234) 
0.0000

>  <Gold.PLP.Chemscore.Hbond>  (234) 
1.0000

>  <Gold.PLP.Chemscore.Internal.Correction>  (234) 
0.0000

>  <Gold.PLP.Chemscore.Metal>  (234) 
0.0000

>  <Gold.PLP.Fitness>  (234) 
43.9775

>  <Gold.PLP.PLP>  (234) 
-41.0517

>  <Gold.PLP.ligand.clash>  (234) 
0.0000

>  <Gold.PLP.ligand.torsion>  (234) 
0.0371

>  <Gold.PLP.part.buried>  (234) 
-3.7367

>  <Gold.PLP.part.hbond>  (234) 
-1.0000

>  <Gold.PLP.part.metal>  (234) 
0.0000

>  <Gold.PLP.part.nonpolar>  (234) 
-36.7483

>  <Gold.PLP.part.repulsive>  (234) 
0.4054

>  <Gold.Protein.RotatedAtoms>  (234) 


>  <Gold.Protein.RotatedTorsions>  (234) 


>  <Gold.Protein.RotatedWaterAtoms>  (234) 


>  <Gold.Version>  (234) 
5.3.0

>  <PLP.Chemscore.CHOScore>  (234) 


>  <PLP.Chemscore.Hbond>  (234) 


>  <PLP.Chemscore.Internal.Correction>  (234) 


>  <PLP.Chemscore.Metal>  (234) 


>  <PLP.Fitness>  (234) 


>  <PLP.PLP>  (234) 


>  <PLP.ligand.clash>  (234) 


>  <PLP.ligand.torsion>  (234) 


>  <PLP.part.buried>  (234) 


>  <PLP.part.hbond>  (234) 


>  <PLP.part.metal>  (234) 


>  <PLP.part.nonpolar>  (234) 


>  <PLP.part.repulsive>  (234) 


>  <RMSD>  (234) 
0.319376411377

>  <Torsion>  (234) 
169.460450784

>  <TorsionO>  (234) 
9.7963905484

>  <TorsionR>  (234) 
179.256841332

>  <Version>  (234) 


>  <product>  (234) 
93|Compound_34|Compounds_3D_F|sdf|15|dock4|1

>  <rmsd>  (234) 
-1

$$$$
128|137677_56|Aromatic_carboxylic_acids_F|sdf|33|dock1|1
     RDKit          3D

 11 11  0  0  0  0  0  0  0  0999 V2000
   -8.6116  -16.1544   11.8887 C   0  0  0  0  0  0  0  0  0  0  0  0
   -7.9978  -14.8484   11.9215 N   0  0  0  0  0  0  0  0  0  0  0  0
   -8.7778  -13.7008   11.8756 C   0  0  0  0  0  0  0  0  0  0  0  0
  -10.0002  -13.7896   11.8139 O   0  0  0  0  0  0  0  0  0  0  0  0
   -8.0808  -12.3609   11.9017 C   0  0  0  0  0  0  0  0  0  0  0  0
   -8.7916  -11.1851   11.5813 C   0  0  0  0  0  0  0  0  0  0  0  0
   -8.1781   -9.9267   11.5989 C   0  0  0  0  0  0  0  0  0  0  0  0
   -6.8391   -9.8089   11.9369 C   0  0  0  0  0  0  0  0  0  0  0  0
   -6.1124  -10.9502   12.2575 C   0  0  0  0  0  0  0  0  0  0  0  0
   -6.7171  -12.2196   12.2428 C   0  0  0  0  0  0  0  0  0  0  0  0
   -5.5419  -13.6455   12.7121 Br  0  0  0  0  0  0  0  0  0  0  0  0
  1  2  1  0
  2  3  1  0
  3  4  2  0
  3  5  1  0
  5  6  2  0
  5 10  1  0
  6  7  1  0
  7  8  2  0
  8  9  1  0
  9 10  2  0
 10 11  1  0
M  END
>  <Gold.Gold.Protein.RotatedWaterAtoms>  (235) 


>  <Gold.Id.Protein>  (235) 


>  <Gold.PLP.Chemscore.CHOScore>  (235) 
0.0000

>  <Gold.PLP.Chemscore.Hbond>  (235) 
1.0000

>  <Gold.PLP.Chemscore.Internal.Correction>  (235) 
0.0000

>  <Gold.PLP.Chemscore.Metal>  (235) 
0.0000

>  <Gold.PLP.Fitness>  (235) 
45.2899

>  <Gold.PLP.PLP>  (235) 
-42.4444

>  <Gold.PLP.ligand.clash>  (235) 
0.0000

>  <Gold.PLP.ligand.torsion>  (235) 
0.0772

>  <Gold.PLP.part.buried>  (235) 
-6.4690

>  <Gold.PLP.part.hbond>  (235) 
-0.6863

>  <Gold.PLP.part.metal>  (235) 
0.0000

>  <Gold.PLP.part.nonpolar>  (235) 
-34.8280

>  <Gold.PLP.part.repulsive>  (235) 
0.1963

>  <Gold.Protein.RotatedAtoms>  (235) 


>  <Gold.Protein.RotatedTorsions>  (235) 


>  <Gold.Protein.RotatedWaterAtoms>  (235) 


>  <Gold.Version>  (235) 
5.3.0

>  <PLP.Chemscore.CHOScore>  (235) 


>  <PLP.Chemscore.Hbond>  (235) 


>  <PLP.Chemscore.Internal.Correction>  (235) 


>  <PLP.Chemscore.Metal>  (235) 


>  <PLP.Fitness>  (235) 


>  <PLP.PLP>  (235) 


>  <PLP.ligand.clash>  (235) 


>  <PLP.ligand.torsion>  (235) 


>  <PLP.part.buried>  (235) 


>  <PLP.part.hbond>  (235) 


>  <PLP.part.metal>  (235) 


>  <PLP.part.nonpolar>  (235) 


>  <PLP.part.repulsive>  (235) 


>  <RMSD>  (235) 
0.428070490903

>  <Torsion>  (235) 
152.444048788

>  <TorsionO>  (235) 
39.0580871276

>  <TorsionR>  (235) 
168.497864085

>  <Version>  (235) 


>  <product>  (235) 
93|Compound_34|Compounds_3D_F|sdf|15|dock4|1

>  <rmsd>  (235) 
-1

$$$$
974|750794_1404|Aromatic_primary_amines_F|sdf|194|dock3|1
     RDKit          3D

 14 14  0  0  0  0  0  0  0  0999 V2000
  -13.6355  -18.1936    9.4145 C   0  0  0  0  0  0  0  0  0  0  0  0
  -13.2544  -19.4497   10.1732 C   0  0  0  0  0  0  0  0  0  0  0  0
  -11.8731  -19.3506   10.5383 O   0  0  0  0  0  0  0  0  0  0  0  0
  -11.6148  -18.5085   11.5823 C   0  0  0  0  0  0  0  0  0  0  0  0
  -12.3947  -18.2810   12.5004 O   0  0  0  0  0  0  0  0  0  0  0  0
  -10.3031  -17.8985   11.4902 C   0  0  0  0  0  0  0  0  0  0  0  0
   -9.1673  -18.4974   10.9931 C   0  0  0  0  0  0  0  0  0  0  0  0
   -8.1448  -17.6055   11.0758 O   0  0  0  0  0  0  0  0  0  0  0  0
   -8.7110  -16.4917   11.6237 C   0  0  0  0  0  0  0  0  0  0  0  0
   -9.9933  -16.6110   11.8915 N   0  0  0  0  0  0  0  0  0  0  0  0
   -7.9611  -15.3718   11.8549 N   0  0  0  0  0  0  0  0  0  0  0  0
   -8.5046  -14.1249   12.0676 C   0  0  0  0  0  0  0  0  0  0  0  0
   -9.6950  -13.8313   12.1035 O   0  0  0  0  0  0  0  0  0  0  0  0
   -7.4448  -13.0785   12.3021 C   0  0  0  0  0  0  0  0  0  0  0  0
  1  2  1  0
  2  3  1  0
  3  4  1  0
  4  5  2  0
  4  6  1  0
  6  7  2  0
  6 10  1  0
  7  8  1  0
  8  9  1  0
  9 10  2  0
  9 11  1  0
 11 12  1  0
 12 13  2  0
 12 14  1  0
M  END
>  <Gold.Gold.Protein.RotatedWaterAtoms>  (236) 


>  <Gold.Id.Protein>  (236) 


>  <Gold.PLP.Chemscore.CHOScore>  (236) 
0.0000

>  <Gold.PLP.Chemscore.Hbond>  (236) 
2.0000

>  <Gold.PLP.Chemscore.Internal.Correction>  (236) 
0.0053

>  <Gold.PLP.Chemscore.Metal>  (236) 
0.0000

>  <Gold.PLP.Fitness>  (236) 
36.8047

>  <Gold.PLP.PLP>  (236) 
-32.7996

>  <Gold.PLP.ligand.clash>  (236) 
0.0000

>  <Gold.PLP.ligand.torsion>  (236) 
1.0001

>  <Gold.PLP.part.buried>  (236) 
-6.5206

>  <Gold.PLP.part.hbond>  (236) 
-2.9156

>  <Gold.PLP.part.metal>  (236) 
0.0000

>  <Gold.PLP.part.nonpolar>  (236) 
-23.4080

>  <Gold.PLP.part.repulsive>  (236) 
0.3100

>  <Gold.Protein.RotatedAtoms>  (236) 


>  <Gold.Protein.RotatedTorsions>  (236) 


>  <Gold.Protein.RotatedWaterAtoms>  (236) 


>  <Gold.Version>  (236) 
5.3.0

>  <PLP.Chemscore.CHOScore>  (236) 


>  <PLP.Chemscore.Hbond>  (236) 


>  <PLP.Chemscore.Internal.Correction>  (236) 


>  <PLP.Chemscore.Metal>  (236) 


>  <PLP.Fitness>  (236) 


>  <PLP.PLP>  (236) 


>  <PLP.ligand.clash>  (236) 


>  <PLP.ligand.torsion>  (236) 


>  <PLP.part.buried>  (236) 


>  <PLP.part.hbond>  (236) 


>  <PLP.part.metal>  (236) 


>  <PLP.part.nonpolar>  (236) 


>  <PLP.part.repulsive>  (236) 


>  <RMSD>  (236) 
0.499949349045

>  <Torsion>  (236) 
159.973716791

>  <TorsionO>  (236) 
19.1052109979

>  <TorsionR>  (236) 
179.078927789

>  <Version>  (236) 


>  <product>  (236) 
93|Compound_34|Compounds_3D_F|sdf|15|dock4|1

>  <rmsd>  (236) 
-1

$$$$
1884|M3006_1781|Aromatic_primary_amines_F|sdf|361|dock3|1
     RDKit          3D

 31 34  0  0  0  0  0  0  0  0999 V2000
  -14.4210  -19.8971    8.7934 C   0  0  0  0  0  0  0  0  0  0  0  0
  -13.9762  -19.4927   10.1894 C   0  0  0  0  0  0  0  0  0  0  0  0
  -14.1356  -20.6409   11.1817 C   0  0  0  0  0  0  0  0  0  0  0  0
  -13.5197  -20.3070   12.5189 C   0  0  0  0  0  0  0  0  0  0  0  0
  -12.9307  -19.2724   12.7954 O   0  0  0  0  0  0  0  0  0  0  0  0
  -13.7110  -21.3451   13.3845 O   0  0  0  0  0  0  0  0  0  0  0  0
  -12.9425  -21.2698   14.5900 C   0  0  0  0  0  0  0  0  0  0  0  0
  -12.8849  -22.6189   15.2889 C   0  0  0  0  0  0  0  0  0  0  0  0
  -11.6552  -22.4172   16.1494 C   0  0  0  0  0  0  0  0  0  0  0  0
  -11.2420  -23.7410   16.7624 C   0  0  0  0  0  0  0  0  0  0  0  0
  -12.3024  -24.2223   17.5862 O   0  0  0  0  0  0  0  0  0  0  0  0
  -13.7888  -24.3384   16.9603 P   0  0  0  0  0  0  0  0  0  0  0  0
  -14.8775  -24.6795   17.9243 O   0  0  0  0  0  0  0  0  0  0  0  0
  -13.9839  -22.9641   16.1174 O   0  0  0  0  0  0  0  0  0  0  0  0
  -13.5991  -25.4435   15.8075 O   0  0  0  0  0  0  0  0  0  0  0  0
  -10.6922  -21.8161   15.2889 O   0  0  0  0  0  0  0  0  0  0  0  0
  -11.4338  -20.9664   14.3653 C   0  0  0  0  0  0  0  0  0  0  0  0
  -10.9052  -21.2017   13.0342 N   0  0  0  0  0  0  0  0  0  0  0  0
  -10.7814  -22.4114   12.4013 C   0  0  0  0  0  0  0  0  0  0  0  0
  -10.2640  -22.2918   11.1953 N   0  0  0  0  0  0  0  0  0  0  0  0
  -10.0274  -20.9476   11.0424 C   0  0  0  0  0  0  0  0  0  0  0  0
  -10.4203  -20.2487   12.1733 C   0  0  0  0  0  0  0  0  0  0  0  0
  -10.3338  -18.9216   12.3641 N   0  0  0  0  0  0  0  0  0  0  0  0
   -9.8057  -18.2730   11.3024 C   0  0  0  0  0  0  0  0  0  0  0  0
   -9.3808  -18.8370   10.1545 N   0  0  0  0  0  0  0  0  0  0  0  0
   -9.4895  -20.1691   10.0244 C   0  0  0  0  0  0  0  0  0  0  0  0
   -9.0330  -20.6622    8.8349 O   0  0  0  0  0  0  0  0  0  0  0  0
   -9.7222  -16.8901   11.4793 N   0  0  0  0  0  0  0  0  0  0  0  0
   -8.5796  -16.1798   11.7761 C   0  0  0  0  0  0  0  0  0  0  0  0
   -7.4445  -16.6221   11.9131 O   0  0  0  0  0  0  0  0  0  0  0  0
   -8.8524  -14.7024   11.8973 C   0  0  0  0  0  0  0  0  0  0  0  0
  1  2  1  0
  2  3  1  0
  3  4  1  0
  4  5  2  0
  4  6  1  0
  6  7  1  0
  7  8  1  0
  7 17  1  0
  8  9  1  0
  8 14  1  0
  9 10  1  0
  9 16  1  0
 10 11  1  0
 11 12  1  0
 12 13  2  0
 12 14  1  0
 12 15  1  0
 16 17  1  0
 17 18  1  0
 18 19  1  0
 18 22  1  0
 19 20  2  0
 20 21  1  0
 21 22  2  0
 21 26  1  0
 22 23  1  0
 23 24  2  0
 24 25  1  0
 24 28  1  0
 25 26  2  0
 26 27  1  0
 28 29  1  0
 29 30  2  0
 29 31  1  0
M  END
>  <Gold.Gold.Protein.RotatedWaterAtoms>  (237) 


>  <Gold.Id.Protein>  (237) 


>  <Gold.PLP.Chemscore.CHOScore>  (237) 
0.0000

>  <Gold.PLP.Chemscore.Hbond>  (237) 
1.2080

>  <Gold.PLP.Chemscore.Internal.Correction>  (237) 
0.1232

>  <Gold.PLP.Chemscore.Metal>  (237) 
0.0000

>  <Gold.PLP.Fitness>  (237) 
47.7145

>  <Gold.PLP.PLP>  (237) 
-46.0218

>  <Gold.PLP.ligand.clash>  (237) 
0.0000

>  <Gold.PLP.ligand.torsion>  (237) 
1.0272

>  <Gold.PLP.part.buried>  (237) 
-2.2958

>  <Gold.PLP.part.hbond>  (237) 
-4.0214

>  <Gold.PLP.part.metal>  (237) 
0.0000

>  <Gold.PLP.part.nonpolar>  (237) 
-41.4699

>  <Gold.PLP.part.repulsive>  (237) 
0.9524

>  <Gold.Protein.RotatedAtoms>  (237) 


>  <Gold.Protein.RotatedTorsions>  (237) 


>  <Gold.Protein.RotatedWaterAtoms>  (237) 


>  <Gold.Version>  (237) 
5.3.0

>  <PLP.Chemscore.CHOScore>  (237) 


>  <PLP.Chemscore.Hbond>  (237) 


>  <PLP.Chemscore.Internal.Correction>  (237) 


>  <PLP.Chemscore.Metal>  (237) 


>  <PLP.Fitness>  (237) 


>  <PLP.PLP>  (237) 


>  <PLP.ligand.clash>  (237) 


>  <PLP.ligand.torsion>  (237) 


>  <PLP.part.buried>  (237) 


>  <PLP.part.hbond>  (237) 


>  <PLP.part.metal>  (237) 


>  <PLP.part.nonpolar>  (237) 


>  <PLP.part.repulsive>  (237) 


>  <RMSD>  (237) 
0.291955871297

>  <Torsion>  (237) 
171.923704933

>  <TorsionO>  (237) 
6.03609353985

>  <TorsionR>  (237) 
177.959798473

>  <Version>  (237) 


>  <product>  (237) 
93|Compound_34|Compounds_3D_F|sdf|15|dock4|1

>  <rmsd>  (237) 
-1

$$$$
193|32168_281|Aromatic_primary_amines_F|sdf|39|dock6|1
     RDKit          3D

 23 25  0  0  0  0  0  0  0  0999 V2000
   -7.8439  -12.1461   11.8919 C   0  0  0  0  0  0  0  0  0  0  0  0
   -8.5691  -13.4472   11.6781 C   0  0  0  0  0  0  0  0  0  0  0  0
   -9.7886  -13.4981   11.5208 O   0  0  0  0  0  0  0  0  0  0  0  0
   -7.7264  -14.5390   11.7020 N   0  0  0  0  0  0  0  0  0  0  0  0
   -8.1889  -15.8197   11.5323 C   0  0  0  0  0  0  0  0  0  0  0  0
   -9.4747  -16.2039   11.8163 N   0  0  0  0  0  0  0  0  0  0  0  0
   -9.5964  -17.5375   11.5379 C   0  0  0  0  0  0  0  0  0  0  0  0
  -10.6643  -18.4283   11.6415 C   0  0  0  0  0  0  0  0  0  0  0  0
  -10.4051  -19.7586   11.2778 C   0  0  0  0  0  0  0  0  0  0  0  0
   -9.1530  -20.1507   10.7795 C   0  0  0  0  0  0  0  0  0  0  0  0
   -8.1017  -19.2294   10.6839 C   0  0  0  0  0  0  0  0  0  0  0  0
   -8.3349  -17.9032   11.0783 C   0  0  0  0  0  0  0  0  0  0  0  0
   -7.4773  -16.8281   11.0838 N   0  0  0  0  0  0  0  0  0  0  0  0
   -8.8530  -21.7658   10.2429 Cl  0  0  0  0  0  0  0  0  0  0  0  0
  -11.4669  -20.6323   11.3734 O   0  0  0  0  0  0  0  0  0  0  0  0
  -12.5262  -20.4408   10.5053 C   0  0  0  0  0  0  0  0  0  0  0  0
  -13.3188  -19.2846   10.5304 C   0  0  0  0  0  0  0  0  0  0  0  0
  -14.3665  -19.1344    9.6224 C   0  0  0  0  0  0  0  0  0  0  0  0
  -14.6219  -20.1279    8.6796 C   0  0  0  0  0  0  0  0  0  0  0  0
  -13.8238  -21.2756    8.6345 C   0  0  0  0  0  0  0  0  0  0  0  0
  -12.7674  -21.4342    9.5416 C   0  0  0  0  0  0  0  0  0  0  0  0
  -11.7588  -22.8458    9.4996 Cl  0  0  0  0  0  0  0  0  0  0  0  0
  -14.1988  -22.4584    7.4296 Cl  0  0  0  0  0  0  0  0  0  0  0  0
  1  2  1  0
  2  3  2  0
  2  4  1  0
  4  5  1  0
  5  6  1  0
  5 13  2  0
  6  7  1  0
  7  8  2  0
  7 12  1  0
  8  9  1  0
  9 10  2  0
  9 15  1  0
 10 11  1  0
 10 14  1  0
 11 12  2  0
 12 13  1  0
 15 16  1  0
 16 17  2  0
 16 21  1  0
 17 18  1  0
 18 19  2  0
 19 20  1  0
 20 21  2  0
 20 23  1  0
 21 22  1  0
M  END
>  <Gold.Gold.Protein.RotatedWaterAtoms>  (238) 


>  <Gold.Id.Protein>  (238) 


>  <Gold.PLP.Chemscore.CHOScore>  (238) 
0.0000

>  <Gold.PLP.Chemscore.Hbond>  (238) 
1.0000

>  <Gold.PLP.Chemscore.Internal.Correction>  (238) 
0.0086

>  <Gold.PLP.Chemscore.Metal>  (238) 
0.0000

>  <Gold.PLP.Fitness>  (238) 
50.7139

>  <Gold.PLP.PLP>  (238) 
-48.1706

>  <Gold.PLP.ligand.clash>  (238) 
0.0000

>  <Gold.PLP.ligand.torsion>  (238) 
0.2327

>  <Gold.PLP.part.buried>  (238) 
-6.5205

>  <Gold.PLP.part.hbond>  (238) 
-2.0000

>  <Gold.PLP.part.metal>  (238) 
0.0000

>  <Gold.PLP.part.nonpolar>  (238) 
-39.3857

>  <Gold.PLP.part.repulsive>  (238) 
0.3298

>  <Gold.Protein.RotatedAtoms>  (238) 


>  <Gold.Protein.RotatedTorsions>  (238) 


>  <Gold.Protein.RotatedWaterAtoms>  (238) 


>  <Gold.Version>  (238) 
5.3.0

>  <PLP.Chemscore.CHOScore>  (238) 


>  <PLP.Chemscore.Hbond>  (238) 


>  <PLP.Chemscore.Internal.Correction>  (238) 


>  <PLP.Chemscore.Metal>  (238) 


>  <PLP.Fitness>  (238) 


>  <PLP.PLP>  (238) 


>  <PLP.ligand.clash>  (238) 


>  <PLP.ligand.torsion>  (238) 


>  <PLP.part.buried>  (238) 


>  <PLP.part.hbond>  (238) 


>  <PLP.part.metal>  (238) 


>  <PLP.part.nonpolar>  (238) 


>  <PLP.part.repulsive>  (238) 


>  <RMSD>  (238) 
0.439733510035

>  <Torsion>  (238) 
177.672185574

>  <TorsionO>  (238) 
4.31728583372

>  <TorsionR>  (238) 
173.35489974

>  <Version>  (238) 


>  <product>  (238) 
93|Compound_34|Compounds_3D_F|sdf|15|dock4|1

>  <rmsd>  (238) 
-1

$$$$
7|Compound_6|Compounds_3D_F|sdf|3|dock1|1
     RDKit          3D

 11 10  0  0  0  0  0  0  0  0999 V2000
   -8.1985  -16.4413    7.3749 B   0  0  0  0  0  0  0  0  0  0  0  0
   -7.8442  -16.1828    8.8820 C   0  0  0  0  0  0  0  0  0  0  0  0
   -7.1617  -16.9793    9.4902 O   0  0  0  0  0  0  0  0  0  0  0  0
   -8.2992  -15.0747    9.5005 N   0  0  0  0  0  0  0  0  0  0  0  0
   -7.9686  -14.8336   10.9075 C   0  0  0  0  0  0  0  0  0  0  0  0
   -8.5162  -13.4949   11.3297 C   0  0  0  0  0  0  0  0  0  0  0  0
   -9.7070  -13.2937   11.3044 O   0  0  0  0  0  0  0  0  0  0  0  0
   -7.6801  -12.5247   11.7348 O   0  0  0  0  0  0  0  0  0  0  0  0
   -8.1450  -11.1555   11.6006 C   0  0  0  0  0  0  0  0  0  0  0  0
   -8.5868  -15.9336   11.7722 C   0  0  0  0  0  0  0  0  0  0  0  0
   -6.4488  -14.8407   11.0829 C   0  0  0  0  0  0  0  0  0  0  0  0
  1  2  1  0
  2  3  2  0
  2  4  1  0
  4  5  1  0
  5  6  1  0
  5 10  1  0
  5 11  1  0
  6  7  2  0
  6  8  1  0
  8  9  1  0
M  END
>  <Gold.Gold.Protein.RotatedWaterAtoms>  (239) 


>  <Gold.Id.Protein>  (239) 


>  <Gold.PLP.Chemscore.CHOScore>  (239) 
0.0000

>  <Gold.PLP.Chemscore.Hbond>  (239) 
2.0000

>  <Gold.PLP.Chemscore.Internal.Correction>  (239) 
0.0005

>  <Gold.PLP.Chemscore.Metal>  (239) 
0.0000

>  <Gold.PLP.Fitness>  (239) 
30.4591

>  <Gold.PLP.PLP>  (239) 
-25.2173

>  <Gold.PLP.ligand.clash>  (239) 
0.0000

>  <Gold.PLP.ligand.torsion>  (239) 
0.3794

>  <Gold.PLP.part.buried>  (239) 
-5.5127

>  <Gold.PLP.part.hbond>  (239) 
-2.0000

>  <Gold.PLP.part.metal>  (239) 
0.0000

>  <Gold.PLP.part.nonpolar>  (239) 
-18.6211

>  <Gold.PLP.part.repulsive>  (239) 
0.3580

>  <Gold.Protein.RotatedAtoms>  (239) 


>  <Gold.Protein.RotatedTorsions>  (239) 


>  <Gold.Protein.RotatedWaterAtoms>  (239) 


>  <Gold.Version>  (239) 
5.3.0

>  <PLP.Chemscore.CHOScore>  (239) 


>  <PLP.Chemscore.Hbond>  (239) 


>  <PLP.Chemscore.Internal.Correction>  (239) 


>  <PLP.Chemscore.Metal>  (239) 


>  <PLP.Fitness>  (239) 


>  <PLP.PLP>  (239) 


>  <PLP.ligand.clash>  (239) 


>  <PLP.ligand.torsion>  (239) 


>  <PLP.part.buried>  (239) 


>  <PLP.part.hbond>  (239) 


>  <PLP.part.metal>  (239) 


>  <PLP.part.nonpolar>  (239) 


>  <PLP.part.repulsive>  (239) 


>  <Version>  (239) 


$$$$
94|664022_40|Aromatic_carboxylic_acids_F|sdf|24|dock1|1
     RDKit          3D

 12 12  0  0  0  0  0  0  0  0999 V2000
   -8.2596  -17.1212   11.4595 C   0  0  0  0  0  0  0  0  0  0  0  0
   -7.6366  -15.8367   11.6688 N   0  0  0  0  0  0  0  0  0  0  0  0
   -8.3409  -14.6553   11.5719 C   0  0  0  0  0  0  0  0  0  0  0  0
   -9.5296  -14.5547   11.2978 O   0  0  0  0  0  0  0  0  0  0  0  0
   -7.5420  -13.4431   11.8503 C   0  0  0  0  0  0  0  0  0  0  0  0
   -8.1627  -12.1983   11.6738 C   0  0  0  0  0  0  0  0  0  0  0  0
   -7.4390  -11.0301   11.9055 C   0  0  0  0  0  0  0  0  0  0  0  0
   -6.1069  -11.0910   12.3103 C   0  0  0  0  0  0  0  0  0  0  0  0
   -5.4897  -12.3324   12.4853 C   0  0  0  0  0  0  0  0  0  0  0  0
   -6.2035  -13.5136   12.2549 C   0  0  0  0  0  0  0  0  0  0  0  0
   -5.3062  -15.1564   12.5638 Br  0  0  0  0  0  0  0  0  0  0  0  0
   -8.1960   -9.5005   11.6887 Cl  0  0  0  0  0  0  0  0  0  0  0  0
  1  2  1  0
  2  3  1  0
  3  4  2  0
  3  5  1  0
  5  6  2  0
  5 10  1  0
  6  7  1  0
  7  8  2  0
  7 12  1  0
  8  9  1  0
  9 10  2  0
 10 11  1  0
M  END
>  <Gold.Gold.Protein.RotatedWaterAtoms>  (240) 


>  <Gold.Id.Protein>  (240) 


>  <Gold.PLP.Chemscore.CHOScore>  (240) 
0.0000

>  <Gold.PLP.Chemscore.Hbond>  (240) 
0.4160

>  <Gold.PLP.Chemscore.Internal.Correction>  (240) 
0.0004

>  <Gold.PLP.Chemscore.Metal>  (240) 
0.0000

>  <Gold.PLP.Fitness>  (240) 
48.9046

>  <Gold.PLP.PLP>  (240) 
-47.6744

>  <Gold.PLP.ligand.clash>  (240) 
0.0000

>  <Gold.PLP.ligand.torsion>  (240) 
0.0091

>  <Gold.PLP.part.buried>  (240) 
-7.3578

>  <Gold.PLP.part.hbond>  (240) 
-0.5127

>  <Gold.PLP.part.metal>  (240) 
0.0000

>  <Gold.PLP.part.nonpolar>  (240) 
-40.3098

>  <Gold.PLP.part.repulsive>  (240) 
0.1684

>  <Gold.Protein.RotatedAtoms>  (240) 


>  <Gold.Protein.RotatedTorsions>  (240) 


>  <Gold.Protein.RotatedWaterAtoms>  (240) 


>  <Gold.Version>  (240) 
5.3.0

>  <PLP.Chemscore.CHOScore>  (240) 


>  <PLP.Chemscore.Hbond>  (240) 


>  <PLP.Chemscore.Internal.Correction>  (240) 


>  <PLP.Chemscore.Metal>  (240) 


>  <PLP.Fitness>  (240) 


>  <PLP.PLP>  (240) 


>  <PLP.ligand.clash>  (240) 


>  <PLP.ligand.torsion>  (240) 


>  <PLP.part.buried>  (240) 


>  <PLP.part.hbond>  (240) 


>  <PLP.part.metal>  (240) 


>  <PLP.part.nonpolar>  (240) 


>  <PLP.part.repulsive>  (240) 


>  <RMSD>  (240) 
0.30972197429

>  <Torsion>  (240) 
172.929186758

>  <TorsionO>  (240) 
24.4968065243

>  <TorsionR>  (240) 
162.574006718

>  <Version>  (240) 


>  <product>  (240) 
7|Compound_6|Compounds_3D_F|sdf|3|dock1|1

>  <rmsd>  (240) 
-1

$$$$
110|565385_49|Aromatic_carboxylic_acids_F|sdf|29|dock1|1
     RDKit          3D

 13 13  0  0  0  0  0  0  0  0999 V2000
  -10.1118  -17.9021   11.6320 C   0  0  0  0  0  0  0  0  0  0  0  0
   -9.7537  -16.5043   11.6546 N   0  0  0  0  0  0  0  0  0  0  0  0
   -8.4330  -16.1187   11.7930 C   0  0  0  0  0  0  0  0  0  0  0  0
   -7.5159  -16.9298   11.9008 O   0  0  0  0  0  0  0  0  0  0  0  0
   -8.1234  -14.6552   11.8105 C   0  0  0  0  0  0  0  0  0  0  0  0
   -9.0636  -13.6551   11.5375 C   0  0  0  0  0  0  0  0  0  0  0  0
   -8.6966  -12.3009   11.5726 C   0  0  0  0  0  0  0  0  0  0  0  0
   -7.3879  -11.9195   11.8809 C   0  0  0  0  0  0  0  0  0  0  0  0
   -6.4486  -12.9235   12.1551 C   0  0  0  0  0  0  0  0  0  0  0  0
   -6.8098  -14.2750   12.1207 C   0  0  0  0  0  0  0  0  0  0  0  0
   -4.6444  -12.5025   12.5849 Br  0  0  0  0  0  0  0  0  0  0  0  0
   -6.9476  -10.6242   11.9372 O   0  0  0  0  0  0  0  0  0  0  0  0
   -7.9020   -9.5910   11.7256 C   0  0  0  0  0  0  0  0  0  0  0  0
  1  2  1  0
  2  3  1  0
  3  4  2  0
  3  5  1  0
  5  6  2  0
  5 10  1  0
  6  7  1  0
  7  8  2  0
  8  9  1  0
  8 12  1  0
  9 10  2  0
  9 11  1  0
 12 13  1  0
M  END
>  <Gold.Gold.Protein.RotatedWaterAtoms>  (241) 


>  <Gold.Id.Protein>  (241) 


>  <Gold.PLP.Chemscore.CHOScore>  (241) 
0.0000

>  <Gold.PLP.Chemscore.Hbond>  (241) 
1.0000

>  <Gold.PLP.Chemscore.Internal.Correction>  (241) 
0.0000

>  <Gold.PLP.Chemscore.Metal>  (241) 
0.0000

>  <Gold.PLP.Fitness>  (241) 
43.9775

>  <Gold.PLP.PLP>  (241) 
-41.0517

>  <Gold.PLP.ligand.clash>  (241) 
0.0000

>  <Gold.PLP.ligand.torsion>  (241) 
0.0371

>  <Gold.PLP.part.buried>  (241) 
-3.7367

>  <Gold.PLP.part.hbond>  (241) 
-1.0000

>  <Gold.PLP.part.metal>  (241) 
0.0000

>  <Gold.PLP.part.nonpolar>  (241) 
-36.7483

>  <Gold.PLP.part.repulsive>  (241) 
0.4054

>  <Gold.Protein.RotatedAtoms>  (241) 


>  <Gold.Protein.RotatedTorsions>  (241) 


>  <Gold.Protein.RotatedWaterAtoms>  (241) 


>  <Gold.Version>  (241) 
5.3.0

>  <PLP.Chemscore.CHOScore>  (241) 


>  <PLP.Chemscore.Hbond>  (241) 


>  <PLP.Chemscore.Internal.Correction>  (241) 


>  <PLP.Chemscore.Metal>  (241) 


>  <PLP.Fitness>  (241) 


>  <PLP.PLP>  (241) 


>  <PLP.ligand.clash>  (241) 


>  <PLP.ligand.torsion>  (241) 


>  <PLP.part.buried>  (241) 


>  <PLP.part.hbond>  (241) 


>  <PLP.part.metal>  (241) 


>  <PLP.part.nonpolar>  (241) 


>  <PLP.part.repulsive>  (241) 


>  <RMSD>  (241) 
0.319376411377

>  <Torsion>  (241) 
169.460450784

>  <TorsionO>  (241) 
9.7963905484

>  <TorsionR>  (241) 
179.256841332

>  <Version>  (241) 


>  <product>  (241) 
7|Compound_6|Compounds_3D_F|sdf|3|dock1|1

>  <rmsd>  (241) 
-1

$$$$
128|137677_56|Aromatic_carboxylic_acids_F|sdf|33|dock1|1
     RDKit          3D

 11 11  0  0  0  0  0  0  0  0999 V2000
   -8.6116  -16.1544   11.8887 C   0  0  0  0  0  0  0  0  0  0  0  0
   -7.9978  -14.8484   11.9215 N   0  0  0  0  0  0  0  0  0  0  0  0
   -8.7778  -13.7008   11.8756 C   0  0  0  0  0  0  0  0  0  0  0  0
  -10.0002  -13.7896   11.8139 O   0  0  0  0  0  0  0  0  0  0  0  0
   -8.0808  -12.3609   11.9017 C   0  0  0  0  0  0  0  0  0  0  0  0
   -8.7916  -11.1851   11.5813 C   0  0  0  0  0  0  0  0  0  0  0  0
   -8.1781   -9.9267   11.5989 C   0  0  0  0  0  0  0  0  0  0  0  0
   -6.8391   -9.8089   11.9369 C   0  0  0  0  0  0  0  0  0  0  0  0
   -6.1124  -10.9502   12.2575 C   0  0  0  0  0  0  0  0  0  0  0  0
   -6.7171  -12.2196   12.2428 C   0  0  0  0  0  0  0  0  0  0  0  0
   -5.5419  -13.6455   12.7121 Br  0  0  0  0  0  0  0  0  0  0  0  0
  1  2  1  0
  2  3  1  0
  3  4  2  0
  3  5  1  0
  5  6  2  0
  5 10  1  0
  6  7  1  0
  7  8  2  0
  8  9  1  0
  9 10  2  0
 10 11  1  0
M  END
>  <Gold.Gold.Protein.RotatedWaterAtoms>  (242) 


>  <Gold.Id.Protein>  (242) 


>  <Gold.PLP.Chemscore.CHOScore>  (242) 
0.0000

>  <Gold.PLP.Chemscore.Hbond>  (242) 
1.0000

>  <Gold.PLP.Chemscore.Internal.Correction>  (242) 
0.0000

>  <Gold.PLP.Chemscore.Metal>  (242) 
0.0000

>  <Gold.PLP.Fitness>  (242) 
45.2899

>  <Gold.PLP.PLP>  (242) 
-42.4444

>  <Gold.PLP.ligand.clash>  (242) 
0.0000

>  <Gold.PLP.ligand.torsion>  (242) 
0.0772

>  <Gold.PLP.part.buried>  (242) 
-6.4690

>  <Gold.PLP.part.hbond>  (242) 
-0.6863

>  <Gold.PLP.part.metal>  (242) 
0.0000

>  <Gold.PLP.part.nonpolar>  (242) 
-34.8280

>  <Gold.PLP.part.repulsive>  (242) 
0.1963

>  <Gold.Protein.RotatedAtoms>  (242) 


>  <Gold.Protein.RotatedTorsions>  (242) 


>  <Gold.Protein.RotatedWaterAtoms>  (242) 


>  <Gold.Version>  (242) 
5.3.0

>  <PLP.Chemscore.CHOScore>  (242) 


>  <PLP.Chemscore.Hbond>  (242) 


>  <PLP.Chemscore.Internal.Correction>  (242) 


>  <PLP.Chemscore.Metal>  (242) 


>  <PLP.Fitness>  (242) 


>  <PLP.PLP>  (242) 


>  <PLP.ligand.clash>  (242) 


>  <PLP.ligand.torsion>  (242) 


>  <PLP.part.buried>  (242) 


>  <PLP.part.hbond>  (242) 


>  <PLP.part.metal>  (242) 


>  <PLP.part.nonpolar>  (242) 


>  <PLP.part.repulsive>  (242) 


>  <RMSD>  (242) 
0.428070490903

>  <Torsion>  (242) 
152.444048788

>  <TorsionO>  (242) 
39.0580871276

>  <TorsionR>  (242) 
168.497864085

>  <Version>  (242) 


>  <product>  (242) 
7|Compound_6|Compounds_3D_F|sdf|3|dock1|1

>  <rmsd>  (242) 
-1

$$$$
974|750794_1404|Aromatic_primary_amines_F|sdf|194|dock3|1
     RDKit          3D

 14 14  0  0  0  0  0  0  0  0999 V2000
  -13.6355  -18.1936    9.4145 C   0  0  0  0  0  0  0  0  0  0  0  0
  -13.2544  -19.4497   10.1732 C   0  0  0  0  0  0  0  0  0  0  0  0
  -11.8731  -19.3506   10.5383 O   0  0  0  0  0  0  0  0  0  0  0  0
  -11.6148  -18.5085   11.5823 C   0  0  0  0  0  0  0  0  0  0  0  0
  -12.3947  -18.2810   12.5004 O   0  0  0  0  0  0  0  0  0  0  0  0
  -10.3031  -17.8985   11.4902 C   0  0  0  0  0  0  0  0  0  0  0  0
   -9.1673  -18.4974   10.9931 C   0  0  0  0  0  0  0  0  0  0  0  0
   -8.1448  -17.6055   11.0758 O   0  0  0  0  0  0  0  0  0  0  0  0
   -8.7110  -16.4917   11.6237 C   0  0  0  0  0  0  0  0  0  0  0  0
   -9.9933  -16.6110   11.8915 N   0  0  0  0  0  0  0  0  0  0  0  0
   -7.9611  -15.3718   11.8549 N   0  0  0  0  0  0  0  0  0  0  0  0
   -8.5046  -14.1249   12.0676 C   0  0  0  0  0  0  0  0  0  0  0  0
   -9.6950  -13.8313   12.1035 O   0  0  0  0  0  0  0  0  0  0  0  0
   -7.4448  -13.0785   12.3021 C   0  0  0  0  0  0  0  0  0  0  0  0
  1  2  1  0
  2  3  1  0
  3  4  1  0
  4  5  2  0
  4  6  1  0
  6  7  2  0
  6 10  1  0
  7  8  1  0
  8  9  1  0
  9 10  2  0
  9 11  1  0
 11 12  1  0
 12 13  2  0
 12 14  1  0
M  END
>  <Gold.Gold.Protein.RotatedWaterAtoms>  (243) 


>  <Gold.Id.Protein>  (243) 


>  <Gold.PLP.Chemscore.CHOScore>  (243) 
0.0000

>  <Gold.PLP.Chemscore.Hbond>  (243) 
2.0000

>  <Gold.PLP.Chemscore.Internal.Correction>  (243) 
0.0053

>  <Gold.PLP.Chemscore.Metal>  (243) 
0.0000

>  <Gold.PLP.Fitness>  (243) 
36.8047

>  <Gold.PLP.PLP>  (243) 
-32.7996

>  <Gold.PLP.ligand.clash>  (243) 
0.0000

>  <Gold.PLP.ligand.torsion>  (243) 
1.0001

>  <Gold.PLP.part.buried>  (243) 
-6.5206

>  <Gold.PLP.part.hbond>  (243) 
-2.9156

>  <Gold.PLP.part.metal>  (243) 
0.0000

>  <Gold.PLP.part.nonpolar>  (243) 
-23.4080

>  <Gold.PLP.part.repulsive>  (243) 
0.3100

>  <Gold.Protein.RotatedAtoms>  (243) 


>  <Gold.Protein.RotatedTorsions>  (243) 


>  <Gold.Protein.RotatedWaterAtoms>  (243) 


>  <Gold.Version>  (243) 
5.3.0

>  <PLP.Chemscore.CHOScore>  (243) 


>  <PLP.Chemscore.Hbond>  (243) 


>  <PLP.Chemscore.Internal.Correction>  (243) 


>  <PLP.Chemscore.Metal>  (243) 


>  <PLP.Fitness>  (243) 


>  <PLP.PLP>  (243) 


>  <PLP.ligand.clash>  (243) 


>  <PLP.ligand.torsion>  (243) 


>  <PLP.part.buried>  (243) 


>  <PLP.part.hbond>  (243) 


>  <PLP.part.metal>  (243) 


>  <PLP.part.nonpolar>  (243) 


>  <PLP.part.repulsive>  (243) 


>  <RMSD>  (243) 
0.499949349045

>  <Torsion>  (243) 
159.973716791

>  <TorsionO>  (243) 
19.1052109979

>  <TorsionR>  (243) 
179.078927789

>  <Version>  (243) 


>  <product>  (243) 
7|Compound_6|Compounds_3D_F|sdf|3|dock1|1

>  <rmsd>  (243) 
-1

$$$$
1884|M3006_1781|Aromatic_primary_amines_F|sdf|361|dock3|1
     RDKit          3D

 31 34  0  0  0  0  0  0  0  0999 V2000
  -14.4210  -19.8971    8.7934 C   0  0  0  0  0  0  0  0  0  0  0  0
  -13.9762  -19.4927   10.1894 C   0  0  0  0  0  0  0  0  0  0  0  0
  -14.1356  -20.6409   11.1817 C   0  0  0  0  0  0  0  0  0  0  0  0
  -13.5197  -20.3070   12.5189 C   0  0  0  0  0  0  0  0  0  0  0  0
  -12.9307  -19.2724   12.7954 O   0  0  0  0  0  0  0  0  0  0  0  0
  -13.7110  -21.3451   13.3845 O   0  0  0  0  0  0  0  0  0  0  0  0
  -12.9425  -21.2698   14.5900 C   0  0  0  0  0  0  0  0  0  0  0  0
  -12.8849  -22.6189   15.2889 C   0  0  0  0  0  0  0  0  0  0  0  0
  -11.6552  -22.4172   16.1494 C   0  0  0  0  0  0  0  0  0  0  0  0
  -11.2420  -23.7410   16.7624 C   0  0  0  0  0  0  0  0  0  0  0  0
  -12.3024  -24.2223   17.5862 O   0  0  0  0  0  0  0  0  0  0  0  0
  -13.7888  -24.3384   16.9603 P   0  0  0  0  0  0  0  0  0  0  0  0
  -14.8775  -24.6795   17.9243 O   0  0  0  0  0  0  0  0  0  0  0  0
  -13.9839  -22.9641   16.1174 O   0  0  0  0  0  0  0  0  0  0  0  0
  -13.5991  -25.4435   15.8075 O   0  0  0  0  0  0  0  0  0  0  0  0
  -10.6922  -21.8161   15.2889 O   0  0  0  0  0  0  0  0  0  0  0  0
  -11.4338  -20.9664   14.3653 C   0  0  0  0  0  0  0  0  0  0  0  0
  -10.9052  -21.2017   13.0342 N   0  0  0  0  0  0  0  0  0  0  0  0
  -10.7814  -22.4114   12.4013 C   0  0  0  0  0  0  0  0  0  0  0  0
  -10.2640  -22.2918   11.1953 N   0  0  0  0  0  0  0  0  0  0  0  0
  -10.0274  -20.9476   11.0424 C   0  0  0  0  0  0  0  0  0  0  0  0
  -10.4203  -20.2487   12.1733 C   0  0  0  0  0  0  0  0  0  0  0  0
  -10.3338  -18.9216   12.3641 N   0  0  0  0  0  0  0  0  0  0  0  0
   -9.8057  -18.2730   11.3024 C   0  0  0  0  0  0  0  0  0  0  0  0
   -9.3808  -18.8370   10.1545 N   0  0  0  0  0  0  0  0  0  0  0  0
   -9.4895  -20.1691   10.0244 C   0  0  0  0  0  0  0  0  0  0  0  0
   -9.0330  -20.6622    8.8349 O   0  0  0  0  0  0  0  0  0  0  0  0
   -9.7222  -16.8901   11.4793 N   0  0  0  0  0  0  0  0  0  0  0  0
   -8.5796  -16.1798   11.7761 C   0  0  0  0  0  0  0  0  0  0  0  0
   -7.4445  -16.6221   11.9131 O   0  0  0  0  0  0  0  0  0  0  0  0
   -8.8524  -14.7024   11.8973 C   0  0  0  0  0  0  0  0  0  0  0  0
  1  2  1  0
  2  3  1  0
  3  4  1  0
  4  5  2  0
  4  6  1  0
  6  7  1  0
  7  8  1  0
  7 17  1  0
  8  9  1  0
  8 14  1  0
  9 10  1  0
  9 16  1  0
 10 11  1  0
 11 12  1  0
 12 13  2  0
 12 14  1  0
 12 15  1  0
 16 17  1  0
 17 18  1  0
 18 19  1  0
 18 22  1  0
 19 20  2  0
 20 21  1  0
 21 22  2  0
 21 26  1  0
 22 23  1  0
 23 24  2  0
 24 25  1  0
 24 28  1  0
 25 26  2  0
 26 27  1  0
 28 29  1  0
 29 30  2  0
 29 31  1  0
M  END
>  <Gold.Gold.Protein.RotatedWaterAtoms>  (244) 


>  <Gold.Id.Protein>  (244) 


>  <Gold.PLP.Chemscore.CHOScore>  (244) 
0.0000

>  <Gold.PLP.Chemscore.Hbond>  (244) 
1.2080

>  <Gold.PLP.Chemscore.Internal.Correction>  (244) 
0.1232

>  <Gold.PLP.Chemscore.Metal>  (244) 
0.0000

>  <Gold.PLP.Fitness>  (244) 
47.7145

>  <Gold.PLP.PLP>  (244) 
-46.0218

>  <Gold.PLP.ligand.clash>  (244) 
0.0000

>  <Gold.PLP.ligand.torsion>  (244) 
1.0272

>  <Gold.PLP.part.buried>  (244) 
-2.2958

>  <Gold.PLP.part.hbond>  (244) 
-4.0214

>  <Gold.PLP.part.metal>  (244) 
0.0000

>  <Gold.PLP.part.nonpolar>  (244) 
-41.4699

>  <Gold.PLP.part.repulsive>  (244) 
0.9524

>  <Gold.Protein.RotatedAtoms>  (244) 


>  <Gold.Protein.RotatedTorsions>  (244) 


>  <Gold.Protein.RotatedWaterAtoms>  (244) 


>  <Gold.Version>  (244) 
5.3.0

>  <PLP.Chemscore.CHOScore>  (244) 


>  <PLP.Chemscore.Hbond>  (244) 


>  <PLP.Chemscore.Internal.Correction>  (244) 


>  <PLP.Chemscore.Metal>  (244) 


>  <PLP.Fitness>  (244) 


>  <PLP.PLP>  (244) 


>  <PLP.ligand.clash>  (244) 


>  <PLP.ligand.torsion>  (244) 


>  <PLP.part.buried>  (244) 


>  <PLP.part.hbond>  (244) 


>  <PLP.part.metal>  (244) 


>  <PLP.part.nonpolar>  (244) 


>  <PLP.part.repulsive>  (244) 


>  <RMSD>  (244) 
0.291955871297

>  <Torsion>  (244) 
171.923704933

>  <TorsionO>  (244) 
6.03609353985

>  <TorsionR>  (244) 
177.959798473

>  <Version>  (244) 


>  <product>  (244) 
7|Compound_6|Compounds_3D_F|sdf|3|dock1|1

>  <rmsd>  (244) 
-1

$$$$
193|32168_281|Aromatic_primary_amines_F|sdf|39|dock6|1
     RDKit          3D

 23 25  0  0  0  0  0  0  0  0999 V2000
   -7.8439  -12.1461   11.8919 C   0  0  0  0  0  0  0  0  0  0  0  0
   -8.5691  -13.4472   11.6781 C   0  0  0  0  0  0  0  0  0  0  0  0
   -9.7886  -13.4981   11.5208 O   0  0  0  0  0  0  0  0  0  0  0  0
   -7.7264  -14.5390   11.7020 N   0  0  0  0  0  0  0  0  0  0  0  0
   -8.1889  -15.8197   11.5323 C   0  0  0  0  0  0  0  0  0  0  0  0
   -9.4747  -16.2039   11.8163 N   0  0  0  0  0  0  0  0  0  0  0  0
   -9.5964  -17.5375   11.5379 C   0  0  0  0  0  0  0  0  0  0  0  0
  -10.6643  -18.4283   11.6415 C   0  0  0  0  0  0  0  0  0  0  0  0
  -10.4051  -19.7586   11.2778 C   0  0  0  0  0  0  0  0  0  0  0  0
   -9.1530  -20.1507   10.7795 C   0  0  0  0  0  0  0  0  0  0  0  0
   -8.1017  -19.2294   10.6839 C   0  0  0  0  0  0  0  0  0  0  0  0
   -8.3349  -17.9032   11.0783 C   0  0  0  0  0  0  0  0  0  0  0  0
   -7.4773  -16.8281   11.0838 N   0  0  0  0  0  0  0  0  0  0  0  0
   -8.8530  -21.7658   10.2429 Cl  0  0  0  0  0  0  0  0  0  0  0  0
  -11.4669  -20.6323   11.3734 O   0  0  0  0  0  0  0  0  0  0  0  0
  -12.5262  -20.4408   10.5053 C   0  0  0  0  0  0  0  0  0  0  0  0
  -13.3188  -19.2846   10.5304 C   0  0  0  0  0  0  0  0  0  0  0  0
  -14.3665  -19.1344    9.6224 C   0  0  0  0  0  0  0  0  0  0  0  0
  -14.6219  -20.1279    8.6796 C   0  0  0  0  0  0  0  0  0  0  0  0
  -13.8238  -21.2756    8.6345 C   0  0  0  0  0  0  0  0  0  0  0  0
  -12.7674  -21.4342    9.5416 C   0  0  0  0  0  0  0  0  0  0  0  0
  -11.7588  -22.8458    9.4996 Cl  0  0  0  0  0  0  0  0  0  0  0  0
  -14.1988  -22.4584    7.4296 Cl  0  0  0  0  0  0  0  0  0  0  0  0
  1  2  1  0
  2  3  2  0
  2  4  1  0
  4  5  1  0
  5  6  1  0
  5 13  2  0
  6  7  1  0
  7  8  2  0
  7 12  1  0
  8  9  1  0
  9 10  2  0
  9 15  1  0
 10 11  1  0
 10 14  1  0
 11 12  2  0
 12 13  1  0
 15 16  1  0
 16 17  2  0
 16 21  1  0
 17 18  1  0
 18 19  2  0
 19 20  1  0
 20 21  2  0
 20 23  1  0
 21 22  1  0
M  END
>  <Gold.Gold.Protein.RotatedWaterAtoms>  (245) 


>  <Gold.Id.Protein>  (245) 


>  <Gold.PLP.Chemscore.CHOScore>  (245) 
0.0000

>  <Gold.PLP.Chemscore.Hbond>  (245) 
1.0000

>  <Gold.PLP.Chemscore.Internal.Correction>  (245) 
0.0086

>  <Gold.PLP.Chemscore.Metal>  (245) 
0.0000

>  <Gold.PLP.Fitness>  (245) 
50.7139

>  <Gold.PLP.PLP>  (245) 
-48.1706

>  <Gold.PLP.ligand.clash>  (245) 
0.0000

>  <Gold.PLP.ligand.torsion>  (245) 
0.2327

>  <Gold.PLP.part.buried>  (245) 
-6.5205

>  <Gold.PLP.part.hbond>  (245) 
-2.0000

>  <Gold.PLP.part.metal>  (245) 
0.0000

>  <Gold.PLP.part.nonpolar>  (245) 
-39.3857

>  <Gold.PLP.part.repulsive>  (245) 
0.3298

>  <Gold.Protein.RotatedAtoms>  (245) 


>  <Gold.Protein.RotatedTorsions>  (245) 


>  <Gold.Protein.RotatedWaterAtoms>  (245) 


>  <Gold.Version>  (245) 
5.3.0

>  <PLP.Chemscore.CHOScore>  (245) 


>  <PLP.Chemscore.Hbond>  (245) 


>  <PLP.Chemscore.Internal.Correction>  (245) 


>  <PLP.Chemscore.Metal>  (245) 


>  <PLP.Fitness>  (245) 


>  <PLP.PLP>  (245) 


>  <PLP.ligand.clash>  (245) 


>  <PLP.ligand.torsion>  (245) 


>  <PLP.part.buried>  (245) 


>  <PLP.part.hbond>  (245) 


>  <PLP.part.metal>  (245) 


>  <PLP.part.nonpolar>  (245) 


>  <PLP.part.repulsive>  (245) 


>  <RMSD>  (245) 
0.439733510035

>  <Torsion>  (245) 
177.672185574

>  <TorsionO>  (245) 
4.31728583372

>  <TorsionR>  (245) 
173.35489974

>  <Version>  (245) 


>  <product>  (245) 
7|Compound_6|Compounds_3D_F|sdf|3|dock1|1

>  <rmsd>  (245) 
-1

$$$$
26|Compound_12|Compounds_3D_F|sdf|5|dock7|1
     RDKit          3D

  6  5  0  0  0  0  0  0  0  0999 V2000
   -4.0036  -17.0634   12.0207 B   0  0  0  0  0  0  0  0  0  0  0  0
   -5.1421  -16.0360   12.3554 C   0  0  0  0  0  0  0  0  0  0  0  0
   -6.0963  -16.3822   13.0186 O   0  0  0  0  0  0  0  0  0  0  0  0
   -5.0590  -14.7681   11.9050 N   0  0  0  0  0  0  0  0  0  0  0  0
   -6.1221  -13.8091   12.2173 C   0  0  0  0  0  0  0  0  0  0  0  0
   -5.5046  -12.4386   12.5029 C   0  0  0  0  0  0  0  0  0  0  0  0
  1  2  1  0
  2  3  2  0
  2  4  1  0
  4  5  1  0
  5  6  1  0
M  END
>  <Gold.Gold.Protein.RotatedWaterAtoms>  (246) 


>  <Gold.Id.Protein>  (246) 


>  <Gold.PLP.Chemscore.CHOScore>  (246) 
0.0000

>  <Gold.PLP.Chemscore.Hbond>  (246) 
1.0000

>  <Gold.PLP.Chemscore.Internal.Correction>  (246) 
0.0000

>  <Gold.PLP.Chemscore.Metal>  (246) 
0.0000

>  <Gold.PLP.Fitness>  (246) 
23.7481

>  <Gold.PLP.PLP>  (246) 
-21.0517

>  <Gold.PLP.ligand.clash>  (246) 
0.0000

>  <Gold.PLP.ligand.torsion>  (246) 
0.1518

>  <Gold.PLP.part.buried>  (246) 
-4.2984

>  <Gold.PLP.part.hbond>  (246) 
-1.6113

>  <Gold.PLP.part.metal>  (246) 
0.0000

>  <Gold.PLP.part.nonpolar>  (246) 
-14.9281

>  <Gold.PLP.part.repulsive>  (246) 
0.1435

>  <Gold.Protein.RotatedAtoms>  (246) 


>  <Gold.Protein.RotatedTorsions>  (246) 


>  <Gold.Protein.RotatedWaterAtoms>  (246) 


>  <Gold.Version>  (246) 
5.3.0

>  <PLP.Chemscore.CHOScore>  (246) 


>  <PLP.Chemscore.Hbond>  (246) 


>  <PLP.Chemscore.Internal.Correction>  (246) 


>  <PLP.Chemscore.Metal>  (246) 


>  <PLP.Fitness>  (246) 


>  <PLP.PLP>  (246) 


>  <PLP.ligand.clash>  (246) 


>  <PLP.ligand.torsion>  (246) 


>  <PLP.part.buried>  (246) 


>  <PLP.part.hbond>  (246) 


>  <PLP.part.metal>  (246) 


>  <PLP.part.nonpolar>  (246) 


>  <PLP.part.repulsive>  (246) 


>  <Version>  (246) 


$$$$
94|664022_40|Aromatic_carboxylic_acids_F|sdf|24|dock1|1
     RDKit          3D

 12 12  0  0  0  0  0  0  0  0999 V2000
   -8.2596  -17.1212   11.4595 C   0  0  0  0  0  0  0  0  0  0  0  0
   -7.6366  -15.8367   11.6688 N   0  0  0  0  0  0  0  0  0  0  0  0
   -8.3409  -14.6553   11.5719 C   0  0  0  0  0  0  0  0  0  0  0  0
   -9.5296  -14.5547   11.2978 O   0  0  0  0  0  0  0  0  0  0  0  0
   -7.5420  -13.4431   11.8503 C   0  0  0  0  0  0  0  0  0  0  0  0
   -8.1627  -12.1983   11.6738 C   0  0  0  0  0  0  0  0  0  0  0  0
   -7.4390  -11.0301   11.9055 C   0  0  0  0  0  0  0  0  0  0  0  0
   -6.1069  -11.0910   12.3103 C   0  0  0  0  0  0  0  0  0  0  0  0
   -5.4897  -12.3324   12.4853 C   0  0  0  0  0  0  0  0  0  0  0  0
   -6.2035  -13.5136   12.2549 C   0  0  0  0  0  0  0  0  0  0  0  0
   -5.3062  -15.1564   12.5638 Br  0  0  0  0  0  0  0  0  0  0  0  0
   -8.1960   -9.5005   11.6887 Cl  0  0  0  0  0  0  0  0  0  0  0  0
  1  2  1  0
  2  3  1  0
  3  4  2  0
  3  5  1  0
  5  6  2  0
  5 10  1  0
  6  7  1  0
  7  8  2  0
  7 12  1  0
  8  9  1  0
  9 10  2  0
 10 11  1  0
M  END
>  <Gold.Gold.Protein.RotatedWaterAtoms>  (247) 


>  <Gold.Id.Protein>  (247) 


>  <Gold.PLP.Chemscore.CHOScore>  (247) 
0.0000

>  <Gold.PLP.Chemscore.Hbond>  (247) 
0.4160

>  <Gold.PLP.Chemscore.Internal.Correction>  (247) 
0.0004

>  <Gold.PLP.Chemscore.Metal>  (247) 
0.0000

>  <Gold.PLP.Fitness>  (247) 
48.9046

>  <Gold.PLP.PLP>  (247) 
-47.6744

>  <Gold.PLP.ligand.clash>  (247) 
0.0000

>  <Gold.PLP.ligand.torsion>  (247) 
0.0091

>  <Gold.PLP.part.buried>  (247) 
-7.3578

>  <Gold.PLP.part.hbond>  (247) 
-0.5127

>  <Gold.PLP.part.metal>  (247) 
0.0000

>  <Gold.PLP.part.nonpolar>  (247) 
-40.3098

>  <Gold.PLP.part.repulsive>  (247) 
0.1684

>  <Gold.Protein.RotatedAtoms>  (247) 


>  <Gold.Protein.RotatedTorsions>  (247) 


>  <Gold.Protein.RotatedWaterAtoms>  (247) 


>  <Gold.Version>  (247) 
5.3.0

>  <PLP.Chemscore.CHOScore>  (247) 


>  <PLP.Chemscore.Hbond>  (247) 


>  <PLP.Chemscore.Internal.Correction>  (247) 


>  <PLP.Chemscore.Metal>  (247) 


>  <PLP.Fitness>  (247) 


>  <PLP.PLP>  (247) 


>  <PLP.ligand.clash>  (247) 


>  <PLP.ligand.torsion>  (247) 


>  <PLP.part.buried>  (247) 


>  <PLP.part.hbond>  (247) 


>  <PLP.part.metal>  (247) 


>  <PLP.part.nonpolar>  (247) 


>  <PLP.part.repulsive>  (247) 


>  <RMSD>  (247) 
0.30972197429

>  <Torsion>  (247) 
172.929186758

>  <TorsionO>  (247) 
24.4968065243

>  <TorsionR>  (247) 
162.574006718

>  <Version>  (247) 


>  <product>  (247) 
26|Compound_12|Compounds_3D_F|sdf|5|dock7|1

>  <rmsd>  (247) 
-1

$$$$
110|565385_49|Aromatic_carboxylic_acids_F|sdf|29|dock1|1
     RDKit          3D

 13 13  0  0  0  0  0  0  0  0999 V2000
  -10.1118  -17.9021   11.6320 C   0  0  0  0  0  0  0  0  0  0  0  0
   -9.7537  -16.5043   11.6546 N   0  0  0  0  0  0  0  0  0  0  0  0
   -8.4330  -16.1187   11.7930 C   0  0  0  0  0  0  0  0  0  0  0  0
   -7.5159  -16.9298   11.9008 O   0  0  0  0  0  0  0  0  0  0  0  0
   -8.1234  -14.6552   11.8105 C   0  0  0  0  0  0  0  0  0  0  0  0
   -9.0636  -13.6551   11.5375 C   0  0  0  0  0  0  0  0  0  0  0  0
   -8.6966  -12.3009   11.5726 C   0  0  0  0  0  0  0  0  0  0  0  0
   -7.3879  -11.9195   11.8809 C   0  0  0  0  0  0  0  0  0  0  0  0
   -6.4486  -12.9235   12.1551 C   0  0  0  0  0  0  0  0  0  0  0  0
   -6.8098  -14.2750   12.1207 C   0  0  0  0  0  0  0  0  0  0  0  0
   -4.6444  -12.5025   12.5849 Br  0  0  0  0  0  0  0  0  0  0  0  0
   -6.9476  -10.6242   11.9372 O   0  0  0  0  0  0  0  0  0  0  0  0
   -7.9020   -9.5910   11.7256 C   0  0  0  0  0  0  0  0  0  0  0  0
  1  2  1  0
  2  3  1  0
  3  4  2  0
  3  5  1  0
  5  6  2  0
  5 10  1  0
  6  7  1  0
  7  8  2  0
  8  9  1  0
  8 12  1  0
  9 10  2  0
  9 11  1  0
 12 13  1  0
M  END
>  <Gold.Gold.Protein.RotatedWaterAtoms>  (248) 


>  <Gold.Id.Protein>  (248) 


>  <Gold.PLP.Chemscore.CHOScore>  (248) 
0.0000

>  <Gold.PLP.Chemscore.Hbond>  (248) 
1.0000

>  <Gold.PLP.Chemscore.Internal.Correction>  (248) 
0.0000

>  <Gold.PLP.Chemscore.Metal>  (248) 
0.0000

>  <Gold.PLP.Fitness>  (248) 
43.9775

>  <Gold.PLP.PLP>  (248) 
-41.0517

>  <Gold.PLP.ligand.clash>  (248) 
0.0000

>  <Gold.PLP.ligand.torsion>  (248) 
0.0371

>  <Gold.PLP.part.buried>  (248) 
-3.7367

>  <Gold.PLP.part.hbond>  (248) 
-1.0000

>  <Gold.PLP.part.metal>  (248) 
0.0000

>  <Gold.PLP.part.nonpolar>  (248) 
-36.7483

>  <Gold.PLP.part.repulsive>  (248) 
0.4054

>  <Gold.Protein.RotatedAtoms>  (248) 


>  <Gold.Protein.RotatedTorsions>  (248) 


>  <Gold.Protein.RotatedWaterAtoms>  (248) 


>  <Gold.Version>  (248) 
5.3.0

>  <PLP.Chemscore.CHOScore>  (248) 


>  <PLP.Chemscore.Hbond>  (248) 


>  <PLP.Chemscore.Internal.Correction>  (248) 


>  <PLP.Chemscore.Metal>  (248) 


>  <PLP.Fitness>  (248) 


>  <PLP.PLP>  (248) 


>  <PLP.ligand.clash>  (248) 


>  <PLP.ligand.torsion>  (248) 


>  <PLP.part.buried>  (248) 


>  <PLP.part.hbond>  (248) 


>  <PLP.part.metal>  (248) 


>  <PLP.part.nonpolar>  (248) 


>  <PLP.part.repulsive>  (248) 


>  <RMSD>  (248) 
0.319376411377

>  <Torsion>  (248) 
169.460450784

>  <TorsionO>  (248) 
9.7963905484

>  <TorsionR>  (248) 
179.256841332

>  <Version>  (248) 


>  <product>  (248) 
26|Compound_12|Compounds_3D_F|sdf|5|dock7|1

>  <rmsd>  (248) 
-1

$$$$
128|137677_56|Aromatic_carboxylic_acids_F|sdf|33|dock1|1
     RDKit          3D

 11 11  0  0  0  0  0  0  0  0999 V2000
   -8.6116  -16.1544   11.8887 C   0  0  0  0  0  0  0  0  0  0  0  0
   -7.9978  -14.8484   11.9215 N   0  0  0  0  0  0  0  0  0  0  0  0
   -8.7778  -13.7008   11.8756 C   0  0  0  0  0  0  0  0  0  0  0  0
  -10.0002  -13.7896   11.8139 O   0  0  0  0  0  0  0  0  0  0  0  0
   -8.0808  -12.3609   11.9017 C   0  0  0  0  0  0  0  0  0  0  0  0
   -8.7916  -11.1851   11.5813 C   0  0  0  0  0  0  0  0  0  0  0  0
   -8.1781   -9.9267   11.5989 C   0  0  0  0  0  0  0  0  0  0  0  0
   -6.8391   -9.8089   11.9369 C   0  0  0  0  0  0  0  0  0  0  0  0
   -6.1124  -10.9502   12.2575 C   0  0  0  0  0  0  0  0  0  0  0  0
   -6.7171  -12.2196   12.2428 C   0  0  0  0  0  0  0  0  0  0  0  0
   -5.5419  -13.6455   12.7121 Br  0  0  0  0  0  0  0  0  0  0  0  0
  1  2  1  0
  2  3  1  0
  3  4  2  0
  3  5  1  0
  5  6  2  0
  5 10  1  0
  6  7  1  0
  7  8  2  0
  8  9  1  0
  9 10  2  0
 10 11  1  0
M  END
>  <Gold.Gold.Protein.RotatedWaterAtoms>  (249) 


>  <Gold.Id.Protein>  (249) 


>  <Gold.PLP.Chemscore.CHOScore>  (249) 
0.0000

>  <Gold.PLP.Chemscore.Hbond>  (249) 
1.0000

>  <Gold.PLP.Chemscore.Internal.Correction>  (249) 
0.0000

>  <Gold.PLP.Chemscore.Metal>  (249) 
0.0000

>  <Gold.PLP.Fitness>  (249) 
45.2899

>  <Gold.PLP.PLP>  (249) 
-42.4444

>  <Gold.PLP.ligand.clash>  (249) 
0.0000

>  <Gold.PLP.ligand.torsion>  (249) 
0.0772

>  <Gold.PLP.part.buried>  (249) 
-6.4690

>  <Gold.PLP.part.hbond>  (249) 
-0.6863

>  <Gold.PLP.part.metal>  (249) 
0.0000

>  <Gold.PLP.part.nonpolar>  (249) 
-34.8280

>  <Gold.PLP.part.repulsive>  (249) 
0.1963

>  <Gold.Protein.RotatedAtoms>  (249) 


>  <Gold.Protein.RotatedTorsions>  (249) 


>  <Gold.Protein.RotatedWaterAtoms>  (249) 


>  <Gold.Version>  (249) 
5.3.0

>  <PLP.Chemscore.CHOScore>  (249) 


>  <PLP.Chemscore.Hbond>  (249) 


>  <PLP.Chemscore.Internal.Correction>  (249) 


>  <PLP.Chemscore.Metal>  (249) 


>  <PLP.Fitness>  (249) 


>  <PLP.PLP>  (249) 


>  <PLP.ligand.clash>  (249) 


>  <PLP.ligand.torsion>  (249) 


>  <PLP.part.buried>  (249) 


>  <PLP.part.hbond>  (249) 


>  <PLP.part.metal>  (249) 


>  <PLP.part.nonpolar>  (249) 


>  <PLP.part.repulsive>  (249) 


>  <RMSD>  (249) 
0.428070490903

>  <Torsion>  (249) 
152.444048788

>  <TorsionO>  (249) 
39.0580871276

>  <TorsionR>  (249) 
168.497864085

>  <Version>  (249) 


>  <product>  (249) 
26|Compound_12|Compounds_3D_F|sdf|5|dock7|1

>  <rmsd>  (249) 
-1

$$$$
974|750794_1404|Aromatic_primary_amines_F|sdf|194|dock3|1
     RDKit          3D

 14 14  0  0  0  0  0  0  0  0999 V2000
  -13.6355  -18.1936    9.4145 C   0  0  0  0  0  0  0  0  0  0  0  0
  -13.2544  -19.4497   10.1732 C   0  0  0  0  0  0  0  0  0  0  0  0
  -11.8731  -19.3506   10.5383 O   0  0  0  0  0  0  0  0  0  0  0  0
  -11.6148  -18.5085   11.5823 C   0  0  0  0  0  0  0  0  0  0  0  0
  -12.3947  -18.2810   12.5004 O   0  0  0  0  0  0  0  0  0  0  0  0
  -10.3031  -17.8985   11.4902 C   0  0  0  0  0  0  0  0  0  0  0  0
   -9.1673  -18.4974   10.9931 C   0  0  0  0  0  0  0  0  0  0  0  0
   -8.1448  -17.6055   11.0758 O   0  0  0  0  0  0  0  0  0  0  0  0
   -8.7110  -16.4917   11.6237 C   0  0  0  0  0  0  0  0  0  0  0  0
   -9.9933  -16.6110   11.8915 N   0  0  0  0  0  0  0  0  0  0  0  0
   -7.9611  -15.3718   11.8549 N   0  0  0  0  0  0  0  0  0  0  0  0
   -8.5046  -14.1249   12.0676 C   0  0  0  0  0  0  0  0  0  0  0  0
   -9.6950  -13.8313   12.1035 O   0  0  0  0  0  0  0  0  0  0  0  0
   -7.4448  -13.0785   12.3021 C   0  0  0  0  0  0  0  0  0  0  0  0
  1  2  1  0
  2  3  1  0
  3  4  1  0
  4  5  2  0
  4  6  1  0
  6  7  2  0
  6 10  1  0
  7  8  1  0
  8  9  1  0
  9 10  2  0
  9 11  1  0
 11 12  1  0
 12 13  2  0
 12 14  1  0
M  END
>  <Gold.Gold.Protein.RotatedWaterAtoms>  (250) 


>  <Gold.Id.Protein>  (250) 


>  <Gold.PLP.Chemscore.CHOScore>  (250) 
0.0000

>  <Gold.PLP.Chemscore.Hbond>  (250) 
2.0000

>  <Gold.PLP.Chemscore.Internal.Correction>  (250) 
0.0053

>  <Gold.PLP.Chemscore.Metal>  (250) 
0.0000

>  <Gold.PLP.Fitness>  (250) 
36.8047

>  <Gold.PLP.PLP>  (250) 
-32.7996

>  <Gold.PLP.ligand.clash>  (250) 
0.0000

>  <Gold.PLP.ligand.torsion>  (250) 
1.0001

>  <Gold.PLP.part.buried>  (250) 
-6.5206

>  <Gold.PLP.part.hbond>  (250) 
-2.9156

>  <Gold.PLP.part.metal>  (250) 
0.0000

>  <Gold.PLP.part.nonpolar>  (250) 
-23.4080

>  <Gold.PLP.part.repulsive>  (250) 
0.3100

>  <Gold.Protein.RotatedAtoms>  (250) 


>  <Gold.Protein.RotatedTorsions>  (250) 


>  <Gold.Protein.RotatedWaterAtoms>  (250) 


>  <Gold.Version>  (250) 
5.3.0

>  <PLP.Chemscore.CHOScore>  (250) 


>  <PLP.Chemscore.Hbond>  (250) 


>  <PLP.Chemscore.Internal.Correction>  (250) 


>  <PLP.Chemscore.Metal>  (250) 


>  <PLP.Fitness>  (250) 


>  <PLP.PLP>  (250) 


>  <PLP.ligand.clash>  (250) 


>  <PLP.ligand.torsion>  (250) 


>  <PLP.part.buried>  (250) 


>  <PLP.part.hbond>  (250) 


>  <PLP.part.metal>  (250) 


>  <PLP.part.nonpolar>  (250) 


>  <PLP.part.repulsive>  (250) 


>  <RMSD>  (250) 
0.499949349045

>  <Torsion>  (250) 
159.973716791

>  <TorsionO>  (250) 
19.1052109979

>  <TorsionR>  (250) 
179.078927789

>  <Version>  (250) 


>  <product>  (250) 
26|Compound_12|Compounds_3D_F|sdf|5|dock7|1

>  <rmsd>  (250) 
-1

$$$$
1884|M3006_1781|Aromatic_primary_amines_F|sdf|361|dock3|1
     RDKit          3D

 31 34  0  0  0  0  0  0  0  0999 V2000
  -14.4210  -19.8971    8.7934 C   0  0  0  0  0  0  0  0  0  0  0  0
  -13.9762  -19.4927   10.1894 C   0  0  0  0  0  0  0  0  0  0  0  0
  -14.1356  -20.6409   11.1817 C   0  0  0  0  0  0  0  0  0  0  0  0
  -13.5197  -20.3070   12.5189 C   0  0  0  0  0  0  0  0  0  0  0  0
  -12.9307  -19.2724   12.7954 O   0  0  0  0  0  0  0  0  0  0  0  0
  -13.7110  -21.3451   13.3845 O   0  0  0  0  0  0  0  0  0  0  0  0
  -12.9425  -21.2698   14.5900 C   0  0  0  0  0  0  0  0  0  0  0  0
  -12.8849  -22.6189   15.2889 C   0  0  0  0  0  0  0  0  0  0  0  0
  -11.6552  -22.4172   16.1494 C   0  0  0  0  0  0  0  0  0  0  0  0
  -11.2420  -23.7410   16.7624 C   0  0  0  0  0  0  0  0  0  0  0  0
  -12.3024  -24.2223   17.5862 O   0  0  0  0  0  0  0  0  0  0  0  0
  -13.7888  -24.3384   16.9603 P   0  0  0  0  0  0  0  0  0  0  0  0
  -14.8775  -24.6795   17.9243 O   0  0  0  0  0  0  0  0  0  0  0  0
  -13.9839  -22.9641   16.1174 O   0  0  0  0  0  0  0  0  0  0  0  0
  -13.5991  -25.4435   15.8075 O   0  0  0  0  0  0  0  0  0  0  0  0
  -10.6922  -21.8161   15.2889 O   0  0  0  0  0  0  0  0  0  0  0  0
  -11.4338  -20.9664   14.3653 C   0  0  0  0  0  0  0  0  0  0  0  0
  -10.9052  -21.2017   13.0342 N   0  0  0  0  0  0  0  0  0  0  0  0
  -10.7814  -22.4114   12.4013 C   0  0  0  0  0  0  0  0  0  0  0  0
  -10.2640  -22.2918   11.1953 N   0  0  0  0  0  0  0  0  0  0  0  0
  -10.0274  -20.9476   11.0424 C   0  0  0  0  0  0  0  0  0  0  0  0
  -10.4203  -20.2487   12.1733 C   0  0  0  0  0  0  0  0  0  0  0  0
  -10.3338  -18.9216   12.3641 N   0  0  0  0  0  0  0  0  0  0  0  0
   -9.8057  -18.2730   11.3024 C   0  0  0  0  0  0  0  0  0  0  0  0
   -9.3808  -18.8370   10.1545 N   0  0  0  0  0  0  0  0  0  0  0  0
   -9.4895  -20.1691   10.0244 C   0  0  0  0  0  0  0  0  0  0  0  0
   -9.0330  -20.6622    8.8349 O   0  0  0  0  0  0  0  0  0  0  0  0
   -9.7222  -16.8901   11.4793 N   0  0  0  0  0  0  0  0  0  0  0  0
   -8.5796  -16.1798   11.7761 C   0  0  0  0  0  0  0  0  0  0  0  0
   -7.4445  -16.6221   11.9131 O   0  0  0  0  0  0  0  0  0  0  0  0
   -8.8524  -14.7024   11.8973 C   0  0  0  0  0  0  0  0  0  0  0  0
  1  2  1  0
  2  3  1  0
  3  4  1  0
  4  5  2  0
  4  6  1  0
  6  7  1  0
  7  8  1  0
  7 17  1  0
  8  9  1  0
  8 14  1  0
  9 10  1  0
  9 16  1  0
 10 11  1  0
 11 12  1  0
 12 13  2  0
 12 14  1  0
 12 15  1  0
 16 17  1  0
 17 18  1  0
 18 19  1  0
 18 22  1  0
 19 20  2  0
 20 21  1  0
 21 22  2  0
 21 26  1  0
 22 23  1  0
 23 24  2  0
 24 25  1  0
 24 28  1  0
 25 26  2  0
 26 27  1  0
 28 29  1  0
 29 30  2  0
 29 31  1  0
M  END
>  <Gold.Gold.Protein.RotatedWaterAtoms>  (251) 


>  <Gold.Id.Protein>  (251) 


>  <Gold.PLP.Chemscore.CHOScore>  (251) 
0.0000

>  <Gold.PLP.Chemscore.Hbond>  (251) 
1.2080

>  <Gold.PLP.Chemscore.Internal.Correction>  (251) 
0.1232

>  <Gold.PLP.Chemscore.Metal>  (251) 
0.0000

>  <Gold.PLP.Fitness>  (251) 
47.7145

>  <Gold.PLP.PLP>  (251) 
-46.0218

>  <Gold.PLP.ligand.clash>  (251) 
0.0000

>  <Gold.PLP.ligand.torsion>  (251) 
1.0272

>  <Gold.PLP.part.buried>  (251) 
-2.2958

>  <Gold.PLP.part.hbond>  (251) 
-4.0214

>  <Gold.PLP.part.metal>  (251) 
0.0000

>  <Gold.PLP.part.nonpolar>  (251) 
-41.4699

>  <Gold.PLP.part.repulsive>  (251) 
0.9524

>  <Gold.Protein.RotatedAtoms>  (251) 


>  <Gold.Protein.RotatedTorsions>  (251) 


>  <Gold.Protein.RotatedWaterAtoms>  (251) 


>  <Gold.Version>  (251) 
5.3.0

>  <PLP.Chemscore.CHOScore>  (251) 


>  <PLP.Chemscore.Hbond>  (251) 


>  <PLP.Chemscore.Internal.Correction>  (251) 


>  <PLP.Chemscore.Metal>  (251) 


>  <PLP.Fitness>  (251) 


>  <PLP.PLP>  (251) 


>  <PLP.ligand.clash>  (251) 


>  <PLP.ligand.torsion>  (251) 


>  <PLP.part.buried>  (251) 


>  <PLP.part.hbond>  (251) 


>  <PLP.part.metal>  (251) 


>  <PLP.part.nonpolar>  (251) 


>  <PLP.part.repulsive>  (251) 


>  <RMSD>  (251) 
0.291955871297

>  <Torsion>  (251) 
171.923704933

>  <TorsionO>  (251) 
6.03609353985

>  <TorsionR>  (251) 
177.959798473

>  <Version>  (251) 


>  <product>  (251) 
26|Compound_12|Compounds_3D_F|sdf|5|dock7|1

>  <rmsd>  (251) 
-1

$$$$
193|32168_281|Aromatic_primary_amines_F|sdf|39|dock6|1
     RDKit          3D

 23 25  0  0  0  0  0  0  0  0999 V2000
   -7.8439  -12.1461   11.8919 C   0  0  0  0  0  0  0  0  0  0  0  0
   -8.5691  -13.4472   11.6781 C   0  0  0  0  0  0  0  0  0  0  0  0
   -9.7886  -13.4981   11.5208 O   0  0  0  0  0  0  0  0  0  0  0  0
   -7.7264  -14.5390   11.7020 N   0  0  0  0  0  0  0  0  0  0  0  0
   -8.1889  -15.8197   11.5323 C   0  0  0  0  0  0  0  0  0  0  0  0
   -9.4747  -16.2039   11.8163 N   0  0  0  0  0  0  0  0  0  0  0  0
   -9.5964  -17.5375   11.5379 C   0  0  0  0  0  0  0  0  0  0  0  0
  -10.6643  -18.4283   11.6415 C   0  0  0  0  0  0  0  0  0  0  0  0
  -10.4051  -19.7586   11.2778 C   0  0  0  0  0  0  0  0  0  0  0  0
   -9.1530  -20.1507   10.7795 C   0  0  0  0  0  0  0  0  0  0  0  0
   -8.1017  -19.2294   10.6839 C   0  0  0  0  0  0  0  0  0  0  0  0
   -8.3349  -17.9032   11.0783 C   0  0  0  0  0  0  0  0  0  0  0  0
   -7.4773  -16.8281   11.0838 N   0  0  0  0  0  0  0  0  0  0  0  0
   -8.8530  -21.7658   10.2429 Cl  0  0  0  0  0  0  0  0  0  0  0  0
  -11.4669  -20.6323   11.3734 O   0  0  0  0  0  0  0  0  0  0  0  0
  -12.5262  -20.4408   10.5053 C   0  0  0  0  0  0  0  0  0  0  0  0
  -13.3188  -19.2846   10.5304 C   0  0  0  0  0  0  0  0  0  0  0  0
  -14.3665  -19.1344    9.6224 C   0  0  0  0  0  0  0  0  0  0  0  0
  -14.6219  -20.1279    8.6796 C   0  0  0  0  0  0  0  0  0  0  0  0
  -13.8238  -21.2756    8.6345 C   0  0  0  0  0  0  0  0  0  0  0  0
  -12.7674  -21.4342    9.5416 C   0  0  0  0  0  0  0  0  0  0  0  0
  -11.7588  -22.8458    9.4996 Cl  0  0  0  0  0  0  0  0  0  0  0  0
  -14.1988  -22.4584    7.4296 Cl  0  0  0  0  0  0  0  0  0  0  0  0
  1  2  1  0
  2  3  2  0
  2  4  1  0
  4  5  1  0
  5  6  1  0
  5 13  2  0
  6  7  1  0
  7  8  2  0
  7 12  1  0
  8  9  1  0
  9 10  2  0
  9 15  1  0
 10 11  1  0
 10 14  1  0
 11 12  2  0
 12 13  1  0
 15 16  1  0
 16 17  2  0
 16 21  1  0
 17 18  1  0
 18 19  2  0
 19 20  1  0
 20 21  2  0
 20 23  1  0
 21 22  1  0
M  END
>  <Gold.Gold.Protein.RotatedWaterAtoms>  (252) 


>  <Gold.Id.Protein>  (252) 


>  <Gold.PLP.Chemscore.CHOScore>  (252) 
0.0000

>  <Gold.PLP.Chemscore.Hbond>  (252) 
1.0000

>  <Gold.PLP.Chemscore.Internal.Correction>  (252) 
0.0086

>  <Gold.PLP.Chemscore.Metal>  (252) 
0.0000

>  <Gold.PLP.Fitness>  (252) 
50.7139

>  <Gold.PLP.PLP>  (252) 
-48.1706

>  <Gold.PLP.ligand.clash>  (252) 
0.0000

>  <Gold.PLP.ligand.torsion>  (252) 
0.2327

>  <Gold.PLP.part.buried>  (252) 
-6.5205

>  <Gold.PLP.part.hbond>  (252) 
-2.0000

>  <Gold.PLP.part.metal>  (252) 
0.0000

>  <Gold.PLP.part.nonpolar>  (252) 
-39.3857

>  <Gold.PLP.part.repulsive>  (252) 
0.3298

>  <Gold.Protein.RotatedAtoms>  (252) 


>  <Gold.Protein.RotatedTorsions>  (252) 


>  <Gold.Protein.RotatedWaterAtoms>  (252) 


>  <Gold.Version>  (252) 
5.3.0

>  <PLP.Chemscore.CHOScore>  (252) 


>  <PLP.Chemscore.Hbond>  (252) 


>  <PLP.Chemscore.Internal.Correction>  (252) 


>  <PLP.Chemscore.Metal>  (252) 


>  <PLP.Fitness>  (252) 


>  <PLP.PLP>  (252) 


>  <PLP.ligand.clash>  (252) 


>  <PLP.ligand.torsion>  (252) 


>  <PLP.part.buried>  (252) 


>  <PLP.part.hbond>  (252) 


>  <PLP.part.metal>  (252) 


>  <PLP.part.nonpolar>  (252) 


>  <PLP.part.repulsive>  (252) 


>  <RMSD>  (252) 
0.439733510035

>  <Torsion>  (252) 
177.672185574

>  <TorsionO>  (252) 
4.31728583372

>  <TorsionR>  (252) 
173.35489974

>  <Version>  (252) 


>  <product>  (252) 
26|Compound_12|Compounds_3D_F|sdf|5|dock7|1

>  <rmsd>  (252) 
-1

$$$$
31|Compound_19|Compounds_3D_F|sdf|6|dock4|1
     RDKit          3D

 12 11  0  0  0  0  0  0  0  0999 V2000
   -4.4455  -12.1986   13.1461 O   0  0  0  0  0  0  0  0  0  0  0  0
   -5.6119  -12.3721   12.5066 C   0  0  0  0  0  0  0  0  0  0  0  0
   -6.2813  -11.4139   12.1981 O   0  0  0  0  0  0  0  0  0  0  0  0
   -6.0890  -13.7622   12.1728 C   0  0  0  0  0  0  0  0  0  0  0  0
   -4.9541  -14.5760   11.7298 N   0  0  0  0  0  0  0  0  0  0  0  0
   -4.8750  -15.8734   12.0845 C   0  0  0  0  0  0  0  0  0  0  0  0
   -5.7445  -16.3677   12.7708 O   0  0  0  0  0  0  0  0  0  0  0  0
   -3.7077  -16.7101   11.6284 C   0  0  0  0  0  0  0  0  0  0  0  0
   -3.7694  -16.8841   10.1750 N   0  0  0  0  0  0  0  0  0  0  0  0
   -2.6811  -17.3019    9.4995 C   0  0  0  0  0  0  0  0  0  0  0  0
   -1.6501  -17.5339   10.0940 O   0  0  0  0  0  0  0  0  0  0  0  0
   -2.7472  -17.4879    7.9417 B   0  0  0  0  0  0  0  0  0  0  0  0
  1  2  1  0
  2  3  2  0
  2  4  1  0
  4  5  1  0
  5  6  1  0
  6  7  2  0
  6  8  1  0
  8  9  1  0
  9 10  1  0
 10 11  2  0
 10 12  1  0
M  END
>  <Gold.Gold.Protein.RotatedWaterAtoms>  (253) 


>  <Gold.Id.Protein>  (253) 


>  <Gold.PLP.Chemscore.CHOScore>  (253) 
0.0000

>  <Gold.PLP.Chemscore.Hbond>  (253) 
3.0000

>  <Gold.PLP.Chemscore.Internal.Correction>  (253) 
0.0064

>  <Gold.PLP.Chemscore.Metal>  (253) 
0.0000

>  <Gold.PLP.Fitness>  (253) 
38.6575

>  <Gold.PLP.PLP>  (253) 
-30.8508

>  <Gold.PLP.ligand.clash>  (253) 
0.0000

>  <Gold.PLP.ligand.torsion>  (253) 
0.5998

>  <Gold.PLP.part.buried>  (253) 
-7.9745

>  <Gold.PLP.part.hbond>  (253) 
-6.3659

>  <Gold.PLP.part.metal>  (253) 
0.0000

>  <Gold.PLP.part.nonpolar>  (253) 
-16.8827

>  <Gold.PLP.part.repulsive>  (253) 
0.6022

>  <Gold.Protein.RotatedAtoms>  (253) 


>  <Gold.Protein.RotatedTorsions>  (253) 


>  <Gold.Protein.RotatedWaterAtoms>  (253) 


>  <Gold.Version>  (253) 
5.3.0

>  <PLP.Chemscore.CHOScore>  (253) 


>  <PLP.Chemscore.Hbond>  (253) 


>  <PLP.Chemscore.Internal.Correction>  (253) 


>  <PLP.Chemscore.Metal>  (253) 


>  <PLP.Fitness>  (253) 


>  <PLP.PLP>  (253) 


>  <PLP.ligand.clash>  (253) 


>  <PLP.ligand.torsion>  (253) 


>  <PLP.part.buried>  (253) 


>  <PLP.part.hbond>  (253) 


>  <PLP.part.metal>  (253) 


>  <PLP.part.nonpolar>  (253) 


>  <PLP.part.repulsive>  (253) 


>  <Version>  (253) 


$$$$
94|664022_40|Aromatic_carboxylic_acids_F|sdf|24|dock1|1
     RDKit          3D

 12 12  0  0  0  0  0  0  0  0999 V2000
   -8.2596  -17.1212   11.4595 C   0  0  0  0  0  0  0  0  0  0  0  0
   -7.6366  -15.8367   11.6688 N   0  0  0  0  0  0  0  0  0  0  0  0
   -8.3409  -14.6553   11.5719 C   0  0  0  0  0  0  0  0  0  0  0  0
   -9.5296  -14.5547   11.2978 O   0  0  0  0  0  0  0  0  0  0  0  0
   -7.5420  -13.4431   11.8503 C   0  0  0  0  0  0  0  0  0  0  0  0
   -8.1627  -12.1983   11.6738 C   0  0  0  0  0  0  0  0  0  0  0  0
   -7.4390  -11.0301   11.9055 C   0  0  0  0  0  0  0  0  0  0  0  0
   -6.1069  -11.0910   12.3103 C   0  0  0  0  0  0  0  0  0  0  0  0
   -5.4897  -12.3324   12.4853 C   0  0  0  0  0  0  0  0  0  0  0  0
   -6.2035  -13.5136   12.2549 C   0  0  0  0  0  0  0  0  0  0  0  0
   -5.3062  -15.1564   12.5638 Br  0  0  0  0  0  0  0  0  0  0  0  0
   -8.1960   -9.5005   11.6887 Cl  0  0  0  0  0  0  0  0  0  0  0  0
  1  2  1  0
  2  3  1  0
  3  4  2  0
  3  5  1  0
  5  6  2  0
  5 10  1  0
  6  7  1  0
  7  8  2  0
  7 12  1  0
  8  9  1  0
  9 10  2  0
 10 11  1  0
M  END
>  <Gold.Gold.Protein.RotatedWaterAtoms>  (254) 


>  <Gold.Id.Protein>  (254) 


>  <Gold.PLP.Chemscore.CHOScore>  (254) 
0.0000

>  <Gold.PLP.Chemscore.Hbond>  (254) 
0.4160

>  <Gold.PLP.Chemscore.Internal.Correction>  (254) 
0.0004

>  <Gold.PLP.Chemscore.Metal>  (254) 
0.0000

>  <Gold.PLP.Fitness>  (254) 
48.9046

>  <Gold.PLP.PLP>  (254) 
-47.6744

>  <Gold.PLP.ligand.clash>  (254) 
0.0000

>  <Gold.PLP.ligand.torsion>  (254) 
0.0091

>  <Gold.PLP.part.buried>  (254) 
-7.3578

>  <Gold.PLP.part.hbond>  (254) 
-0.5127

>  <Gold.PLP.part.metal>  (254) 
0.0000

>  <Gold.PLP.part.nonpolar>  (254) 
-40.3098

>  <Gold.PLP.part.repulsive>  (254) 
0.1684

>  <Gold.Protein.RotatedAtoms>  (254) 


>  <Gold.Protein.RotatedTorsions>  (254) 


>  <Gold.Protein.RotatedWaterAtoms>  (254) 


>  <Gold.Version>  (254) 
5.3.0

>  <PLP.Chemscore.CHOScore>  (254) 


>  <PLP.Chemscore.Hbond>  (254) 


>  <PLP.Chemscore.Internal.Correction>  (254) 


>  <PLP.Chemscore.Metal>  (254) 


>  <PLP.Fitness>  (254) 


>  <PLP.PLP>  (254) 


>  <PLP.ligand.clash>  (254) 


>  <PLP.ligand.torsion>  (254) 


>  <PLP.part.buried>  (254) 


>  <PLP.part.hbond>  (254) 


>  <PLP.part.metal>  (254) 


>  <PLP.part.nonpolar>  (254) 


>  <PLP.part.repulsive>  (254) 


>  <RMSD>  (254) 
0.30972197429

>  <Torsion>  (254) 
172.929186758

>  <TorsionO>  (254) 
24.4968065243

>  <TorsionR>  (254) 
162.574006718

>  <Version>  (254) 


>  <product>  (254) 
31|Compound_19|Compounds_3D_F|sdf|6|dock4|1

>  <rmsd>  (254) 
-1

$$$$
110|565385_49|Aromatic_carboxylic_acids_F|sdf|29|dock1|1
     RDKit          3D

 13 13  0  0  0  0  0  0  0  0999 V2000
  -10.1118  -17.9021   11.6320 C   0  0  0  0  0  0  0  0  0  0  0  0
   -9.7537  -16.5043   11.6546 N   0  0  0  0  0  0  0  0  0  0  0  0
   -8.4330  -16.1187   11.7930 C   0  0  0  0  0  0  0  0  0  0  0  0
   -7.5159  -16.9298   11.9008 O   0  0  0  0  0  0  0  0  0  0  0  0
   -8.1234  -14.6552   11.8105 C   0  0  0  0  0  0  0  0  0  0  0  0
   -9.0636  -13.6551   11.5375 C   0  0  0  0  0  0  0  0  0  0  0  0
   -8.6966  -12.3009   11.5726 C   0  0  0  0  0  0  0  0  0  0  0  0
   -7.3879  -11.9195   11.8809 C   0  0  0  0  0  0  0  0  0  0  0  0
   -6.4486  -12.9235   12.1551 C   0  0  0  0  0  0  0  0  0  0  0  0
   -6.8098  -14.2750   12.1207 C   0  0  0  0  0  0  0  0  0  0  0  0
   -4.6444  -12.5025   12.5849 Br  0  0  0  0  0  0  0  0  0  0  0  0
   -6.9476  -10.6242   11.9372 O   0  0  0  0  0  0  0  0  0  0  0  0
   -7.9020   -9.5910   11.7256 C   0  0  0  0  0  0  0  0  0  0  0  0
  1  2  1  0
  2  3  1  0
  3  4  2  0
  3  5  1  0
  5  6  2  0
  5 10  1  0
  6  7  1  0
  7  8  2  0
  8  9  1  0
  8 12  1  0
  9 10  2  0
  9 11  1  0
 12 13  1  0
M  END
>  <Gold.Gold.Protein.RotatedWaterAtoms>  (255) 


>  <Gold.Id.Protein>  (255) 


>  <Gold.PLP.Chemscore.CHOScore>  (255) 
0.0000

>  <Gold.PLP.Chemscore.Hbond>  (255) 
1.0000

>  <Gold.PLP.Chemscore.Internal.Correction>  (255) 
0.0000

>  <Gold.PLP.Chemscore.Metal>  (255) 
0.0000

>  <Gold.PLP.Fitness>  (255) 
43.9775

>  <Gold.PLP.PLP>  (255) 
-41.0517

>  <Gold.PLP.ligand.clash>  (255) 
0.0000

>  <Gold.PLP.ligand.torsion>  (255) 
0.0371

>  <Gold.PLP.part.buried>  (255) 
-3.7367

>  <Gold.PLP.part.hbond>  (255) 
-1.0000

>  <Gold.PLP.part.metal>  (255) 
0.0000

>  <Gold.PLP.part.nonpolar>  (255) 
-36.7483

>  <Gold.PLP.part.repulsive>  (255) 
0.4054

>  <Gold.Protein.RotatedAtoms>  (255) 


>  <Gold.Protein.RotatedTorsions>  (255) 


>  <Gold.Protein.RotatedWaterAtoms>  (255) 


>  <Gold.Version>  (255) 
5.3.0

>  <PLP.Chemscore.CHOScore>  (255) 


>  <PLP.Chemscore.Hbond>  (255) 


>  <PLP.Chemscore.Internal.Correction>  (255) 


>  <PLP.Chemscore.Metal>  (255) 


>  <PLP.Fitness>  (255) 


>  <PLP.PLP>  (255) 


>  <PLP.ligand.clash>  (255) 


>  <PLP.ligand.torsion>  (255) 


>  <PLP.part.buried>  (255) 


>  <PLP.part.hbond>  (255) 


>  <PLP.part.metal>  (255) 


>  <PLP.part.nonpolar>  (255) 


>  <PLP.part.repulsive>  (255) 


>  <RMSD>  (255) 
0.319376411377

>  <Torsion>  (255) 
169.460450784

>  <TorsionO>  (255) 
9.7963905484

>  <TorsionR>  (255) 
179.256841332

>  <Version>  (255) 


>  <product>  (255) 
31|Compound_19|Compounds_3D_F|sdf|6|dock4|1

>  <rmsd>  (255) 
-1

$$$$
128|137677_56|Aromatic_carboxylic_acids_F|sdf|33|dock1|1
     RDKit          3D

 11 11  0  0  0  0  0  0  0  0999 V2000
   -8.6116  -16.1544   11.8887 C   0  0  0  0  0  0  0  0  0  0  0  0
   -7.9978  -14.8484   11.9215 N   0  0  0  0  0  0  0  0  0  0  0  0
   -8.7778  -13.7008   11.8756 C   0  0  0  0  0  0  0  0  0  0  0  0
  -10.0002  -13.7896   11.8139 O   0  0  0  0  0  0  0  0  0  0  0  0
   -8.0808  -12.3609   11.9017 C   0  0  0  0  0  0  0  0  0  0  0  0
   -8.7916  -11.1851   11.5813 C   0  0  0  0  0  0  0  0  0  0  0  0
   -8.1781   -9.9267   11.5989 C   0  0  0  0  0  0  0  0  0  0  0  0
   -6.8391   -9.8089   11.9369 C   0  0  0  0  0  0  0  0  0  0  0  0
   -6.1124  -10.9502   12.2575 C   0  0  0  0  0  0  0  0  0  0  0  0
   -6.7171  -12.2196   12.2428 C   0  0  0  0  0  0  0  0  0  0  0  0
   -5.5419  -13.6455   12.7121 Br  0  0  0  0  0  0  0  0  0  0  0  0
  1  2  1  0
  2  3  1  0
  3  4  2  0
  3  5  1  0
  5  6  2  0
  5 10  1  0
  6  7  1  0
  7  8  2  0
  8  9  1  0
  9 10  2  0
 10 11  1  0
M  END
>  <Gold.Gold.Protein.RotatedWaterAtoms>  (256) 


>  <Gold.Id.Protein>  (256) 


>  <Gold.PLP.Chemscore.CHOScore>  (256) 
0.0000

>  <Gold.PLP.Chemscore.Hbond>  (256) 
1.0000

>  <Gold.PLP.Chemscore.Internal.Correction>  (256) 
0.0000

>  <Gold.PLP.Chemscore.Metal>  (256) 
0.0000

>  <Gold.PLP.Fitness>  (256) 
45.2899

>  <Gold.PLP.PLP>  (256) 
-42.4444

>  <Gold.PLP.ligand.clash>  (256) 
0.0000

>  <Gold.PLP.ligand.torsion>  (256) 
0.0772

>  <Gold.PLP.part.buried>  (256) 
-6.4690

>  <Gold.PLP.part.hbond>  (256) 
-0.6863

>  <Gold.PLP.part.metal>  (256) 
0.0000

>  <Gold.PLP.part.nonpolar>  (256) 
-34.8280

>  <Gold.PLP.part.repulsive>  (256) 
0.1963

>  <Gold.Protein.RotatedAtoms>  (256) 


>  <Gold.Protein.RotatedTorsions>  (256) 


>  <Gold.Protein.RotatedWaterAtoms>  (256) 


>  <Gold.Version>  (256) 
5.3.0

>  <PLP.Chemscore.CHOScore>  (256) 


>  <PLP.Chemscore.Hbond>  (256) 


>  <PLP.Chemscore.Internal.Correction>  (256) 


>  <PLP.Chemscore.Metal>  (256) 


>  <PLP.Fitness>  (256) 


>  <PLP.PLP>  (256) 


>  <PLP.ligand.clash>  (256) 


>  <PLP.ligand.torsion>  (256) 


>  <PLP.part.buried>  (256) 


>  <PLP.part.hbond>  (256) 


>  <PLP.part.metal>  (256) 


>  <PLP.part.nonpolar>  (256) 


>  <PLP.part.repulsive>  (256) 


>  <RMSD>  (256) 
0.428070490903

>  <Torsion>  (256) 
152.444048788

>  <TorsionO>  (256) 
39.0580871276

>  <TorsionR>  (256) 
168.497864085

>  <Version>  (256) 


>  <product>  (256) 
31|Compound_19|Compounds_3D_F|sdf|6|dock4|1

>  <rmsd>  (256) 
-1

$$$$
974|750794_1404|Aromatic_primary_amines_F|sdf|194|dock3|1
     RDKit          3D

 14 14  0  0  0  0  0  0  0  0999 V2000
  -13.6355  -18.1936    9.4145 C   0  0  0  0  0  0  0  0  0  0  0  0
  -13.2544  -19.4497   10.1732 C   0  0  0  0  0  0  0  0  0  0  0  0
  -11.8731  -19.3506   10.5383 O   0  0  0  0  0  0  0  0  0  0  0  0
  -11.6148  -18.5085   11.5823 C   0  0  0  0  0  0  0  0  0  0  0  0
  -12.3947  -18.2810   12.5004 O   0  0  0  0  0  0  0  0  0  0  0  0
  -10.3031  -17.8985   11.4902 C   0  0  0  0  0  0  0  0  0  0  0  0
   -9.1673  -18.4974   10.9931 C   0  0  0  0  0  0  0  0  0  0  0  0
   -8.1448  -17.6055   11.0758 O   0  0  0  0  0  0  0  0  0  0  0  0
   -8.7110  -16.4917   11.6237 C   0  0  0  0  0  0  0  0  0  0  0  0
   -9.9933  -16.6110   11.8915 N   0  0  0  0  0  0  0  0  0  0  0  0
   -7.9611  -15.3718   11.8549 N   0  0  0  0  0  0  0  0  0  0  0  0
   -8.5046  -14.1249   12.0676 C   0  0  0  0  0  0  0  0  0  0  0  0
   -9.6950  -13.8313   12.1035 O   0  0  0  0  0  0  0  0  0  0  0  0
   -7.4448  -13.0785   12.3021 C   0  0  0  0  0  0  0  0  0  0  0  0
  1  2  1  0
  2  3  1  0
  3  4  1  0
  4  5  2  0
  4  6  1  0
  6  7  2  0
  6 10  1  0
  7  8  1  0
  8  9  1  0
  9 10  2  0
  9 11  1  0
 11 12  1  0
 12 13  2  0
 12 14  1  0
M  END
>  <Gold.Gold.Protein.RotatedWaterAtoms>  (257) 


>  <Gold.Id.Protein>  (257) 


>  <Gold.PLP.Chemscore.CHOScore>  (257) 
0.0000

>  <Gold.PLP.Chemscore.Hbond>  (257) 
2.0000

>  <Gold.PLP.Chemscore.Internal.Correction>  (257) 
0.0053

>  <Gold.PLP.Chemscore.Metal>  (257) 
0.0000

>  <Gold.PLP.Fitness>  (257) 
36.8047

>  <Gold.PLP.PLP>  (257) 
-32.7996

>  <Gold.PLP.ligand.clash>  (257) 
0.0000

>  <Gold.PLP.ligand.torsion>  (257) 
1.0001

>  <Gold.PLP.part.buried>  (257) 
-6.5206

>  <Gold.PLP.part.hbond>  (257) 
-2.9156

>  <Gold.PLP.part.metal>  (257) 
0.0000

>  <Gold.PLP.part.nonpolar>  (257) 
-23.4080

>  <Gold.PLP.part.repulsive>  (257) 
0.3100

>  <Gold.Protein.RotatedAtoms>  (257) 


>  <Gold.Protein.RotatedTorsions>  (257) 


>  <Gold.Protein.RotatedWaterAtoms>  (257) 


>  <Gold.Version>  (257) 
5.3.0

>  <PLP.Chemscore.CHOScore>  (257) 


>  <PLP.Chemscore.Hbond>  (257) 


>  <PLP.Chemscore.Internal.Correction>  (257) 


>  <PLP.Chemscore.Metal>  (257) 


>  <PLP.Fitness>  (257) 


>  <PLP.PLP>  (257) 


>  <PLP.ligand.clash>  (257) 


>  <PLP.ligand.torsion>  (257) 


>  <PLP.part.buried>  (257) 


>  <PLP.part.hbond>  (257) 


>  <PLP.part.metal>  (257) 


>  <PLP.part.nonpolar>  (257) 


>  <PLP.part.repulsive>  (257) 


>  <RMSD>  (257) 
0.499949349045

>  <Torsion>  (257) 
159.973716791

>  <TorsionO>  (257) 
19.1052109979

>  <TorsionR>  (257) 
179.078927789

>  <Version>  (257) 


>  <product>  (257) 
31|Compound_19|Compounds_3D_F|sdf|6|dock4|1

>  <rmsd>  (257) 
-1

$$$$
1884|M3006_1781|Aromatic_primary_amines_F|sdf|361|dock3|1
     RDKit          3D

 31 34  0  0  0  0  0  0  0  0999 V2000
  -14.4210  -19.8971    8.7934 C   0  0  0  0  0  0  0  0  0  0  0  0
  -13.9762  -19.4927   10.1894 C   0  0  0  0  0  0  0  0  0  0  0  0
  -14.1356  -20.6409   11.1817 C   0  0  0  0  0  0  0  0  0  0  0  0
  -13.5197  -20.3070   12.5189 C   0  0  0  0  0  0  0  0  0  0  0  0
  -12.9307  -19.2724   12.7954 O   0  0  0  0  0  0  0  0  0  0  0  0
  -13.7110  -21.3451   13.3845 O   0  0  0  0  0  0  0  0  0  0  0  0
  -12.9425  -21.2698   14.5900 C   0  0  0  0  0  0  0  0  0  0  0  0
  -12.8849  -22.6189   15.2889 C   0  0  0  0  0  0  0  0  0  0  0  0
  -11.6552  -22.4172   16.1494 C   0  0  0  0  0  0  0  0  0  0  0  0
  -11.2420  -23.7410   16.7624 C   0  0  0  0  0  0  0  0  0  0  0  0
  -12.3024  -24.2223   17.5862 O   0  0  0  0  0  0  0  0  0  0  0  0
  -13.7888  -24.3384   16.9603 P   0  0  0  0  0  0  0  0  0  0  0  0
  -14.8775  -24.6795   17.9243 O   0  0  0  0  0  0  0  0  0  0  0  0
  -13.9839  -22.9641   16.1174 O   0  0  0  0  0  0  0  0  0  0  0  0
  -13.5991  -25.4435   15.8075 O   0  0  0  0  0  0  0  0  0  0  0  0
  -10.6922  -21.8161   15.2889 O   0  0  0  0  0  0  0  0  0  0  0  0
  -11.4338  -20.9664   14.3653 C   0  0  0  0  0  0  0  0  0  0  0  0
  -10.9052  -21.2017   13.0342 N   0  0  0  0  0  0  0  0  0  0  0  0
  -10.7814  -22.4114   12.4013 C   0  0  0  0  0  0  0  0  0  0  0  0
  -10.2640  -22.2918   11.1953 N   0  0  0  0  0  0  0  0  0  0  0  0
  -10.0274  -20.9476   11.0424 C   0  0  0  0  0  0  0  0  0  0  0  0
  -10.4203  -20.2487   12.1733 C   0  0  0  0  0  0  0  0  0  0  0  0
  -10.3338  -18.9216   12.3641 N   0  0  0  0  0  0  0  0  0  0  0  0
   -9.8057  -18.2730   11.3024 C   0  0  0  0  0  0  0  0  0  0  0  0
   -9.3808  -18.8370   10.1545 N   0  0  0  0  0  0  0  0  0  0  0  0
   -9.4895  -20.1691   10.0244 C   0  0  0  0  0  0  0  0  0  0  0  0
   -9.0330  -20.6622    8.8349 O   0  0  0  0  0  0  0  0  0  0  0  0
   -9.7222  -16.8901   11.4793 N   0  0  0  0  0  0  0  0  0  0  0  0
   -8.5796  -16.1798   11.7761 C   0  0  0  0  0  0  0  0  0  0  0  0
   -7.4445  -16.6221   11.9131 O   0  0  0  0  0  0  0  0  0  0  0  0
   -8.8524  -14.7024   11.8973 C   0  0  0  0  0  0  0  0  0  0  0  0
  1  2  1  0
  2  3  1  0
  3  4  1  0
  4  5  2  0
  4  6  1  0
  6  7  1  0
  7  8  1  0
  7 17  1  0
  8  9  1  0
  8 14  1  0
  9 10  1  0
  9 16  1  0
 10 11  1  0
 11 12  1  0
 12 13  2  0
 12 14  1  0
 12 15  1  0
 16 17  1  0
 17 18  1  0
 18 19  1  0
 18 22  1  0
 19 20  2  0
 20 21  1  0
 21 22  2  0
 21 26  1  0
 22 23  1  0
 23 24  2  0
 24 25  1  0
 24 28  1  0
 25 26  2  0
 26 27  1  0
 28 29  1  0
 29 30  2  0
 29 31  1  0
M  END
>  <Gold.Gold.Protein.RotatedWaterAtoms>  (258) 


>  <Gold.Id.Protein>  (258) 


>  <Gold.PLP.Chemscore.CHOScore>  (258) 
0.0000

>  <Gold.PLP.Chemscore.Hbond>  (258) 
1.2080

>  <Gold.PLP.Chemscore.Internal.Correction>  (258) 
0.1232

>  <Gold.PLP.Chemscore.Metal>  (258) 
0.0000

>  <Gold.PLP.Fitness>  (258) 
47.7145

>  <Gold.PLP.PLP>  (258) 
-46.0218

>  <Gold.PLP.ligand.clash>  (258) 
0.0000

>  <Gold.PLP.ligand.torsion>  (258) 
1.0272

>  <Gold.PLP.part.buried>  (258) 
-2.2958

>  <Gold.PLP.part.hbond>  (258) 
-4.0214

>  <Gold.PLP.part.metal>  (258) 
0.0000

>  <Gold.PLP.part.nonpolar>  (258) 
-41.4699

>  <Gold.PLP.part.repulsive>  (258) 
0.9524

>  <Gold.Protein.RotatedAtoms>  (258) 


>  <Gold.Protein.RotatedTorsions>  (258) 


>  <Gold.Protein.RotatedWaterAtoms>  (258) 


>  <Gold.Version>  (258) 
5.3.0

>  <PLP.Chemscore.CHOScore>  (258) 


>  <PLP.Chemscore.Hbond>  (258) 


>  <PLP.Chemscore.Internal.Correction>  (258) 


>  <PLP.Chemscore.Metal>  (258) 


>  <PLP.Fitness>  (258) 


>  <PLP.PLP>  (258) 


>  <PLP.ligand.clash>  (258) 


>  <PLP.ligand.torsion>  (258) 


>  <PLP.part.buried>  (258) 


>  <PLP.part.hbond>  (258) 


>  <PLP.part.metal>  (258) 


>  <PLP.part.nonpolar>  (258) 


>  <PLP.part.repulsive>  (258) 


>  <RMSD>  (258) 
0.291955871297

>  <Torsion>  (258) 
171.923704933

>  <TorsionO>  (258) 
6.03609353985

>  <TorsionR>  (258) 
177.959798473

>  <Version>  (258) 


>  <product>  (258) 
31|Compound_19|Compounds_3D_F|sdf|6|dock4|1

>  <rmsd>  (258) 
-1

$$$$
193|32168_281|Aromatic_primary_amines_F|sdf|39|dock6|1
     RDKit          3D

 23 25  0  0  0  0  0  0  0  0999 V2000
   -7.8439  -12.1461   11.8919 C   0  0  0  0  0  0  0  0  0  0  0  0
   -8.5691  -13.4472   11.6781 C   0  0  0  0  0  0  0  0  0  0  0  0
   -9.7886  -13.4981   11.5208 O   0  0  0  0  0  0  0  0  0  0  0  0
   -7.7264  -14.5390   11.7020 N   0  0  0  0  0  0  0  0  0  0  0  0
   -8.1889  -15.8197   11.5323 C   0  0  0  0  0  0  0  0  0  0  0  0
   -9.4747  -16.2039   11.8163 N   0  0  0  0  0  0  0  0  0  0  0  0
   -9.5964  -17.5375   11.5379 C   0  0  0  0  0  0  0  0  0  0  0  0
  -10.6643  -18.4283   11.6415 C   0  0  0  0  0  0  0  0  0  0  0  0
  -10.4051  -19.7586   11.2778 C   0  0  0  0  0  0  0  0  0  0  0  0
   -9.1530  -20.1507   10.7795 C   0  0  0  0  0  0  0  0  0  0  0  0
   -8.1017  -19.2294   10.6839 C   0  0  0  0  0  0  0  0  0  0  0  0
   -8.3349  -17.9032   11.0783 C   0  0  0  0  0  0  0  0  0  0  0  0
   -7.4773  -16.8281   11.0838 N   0  0  0  0  0  0  0  0  0  0  0  0
   -8.8530  -21.7658   10.2429 Cl  0  0  0  0  0  0  0  0  0  0  0  0
  -11.4669  -20.6323   11.3734 O   0  0  0  0  0  0  0  0  0  0  0  0
  -12.5262  -20.4408   10.5053 C   0  0  0  0  0  0  0  0  0  0  0  0
  -13.3188  -19.2846   10.5304 C   0  0  0  0  0  0  0  0  0  0  0  0
  -14.3665  -19.1344    9.6224 C   0  0  0  0  0  0  0  0  0  0  0  0
  -14.6219  -20.1279    8.6796 C   0  0  0  0  0  0  0  0  0  0  0  0
  -13.8238  -21.2756    8.6345 C   0  0  0  0  0  0  0  0  0  0  0  0
  -12.7674  -21.4342    9.5416 C   0  0  0  0  0  0  0  0  0  0  0  0
  -11.7588  -22.8458    9.4996 Cl  0  0  0  0  0  0  0  0  0  0  0  0
  -14.1988  -22.4584    7.4296 Cl  0  0  0  0  0  0  0  0  0  0  0  0
  1  2  1  0
  2  3  2  0
  2  4  1  0
  4  5  1  0
  5  6  1  0
  5 13  2  0
  6  7  1  0
  7  8  2  0
  7 12  1  0
  8  9  1  0
  9 10  2  0
  9 15  1  0
 10 11  1  0
 10 14  1  0
 11 12  2  0
 12 13  1  0
 15 16  1  0
 16 17  2  0
 16 21  1  0
 17 18  1  0
 18 19  2  0
 19 20  1  0
 20 21  2  0
 20 23  1  0
 21 22  1  0
M  END
>  <Gold.Gold.Protein.RotatedWaterAtoms>  (259) 


>  <Gold.Id.Protein>  (259) 


>  <Gold.PLP.Chemscore.CHOScore>  (259) 
0.0000

>  <Gold.PLP.Chemscore.Hbond>  (259) 
1.0000

>  <Gold.PLP.Chemscore.Internal.Correction>  (259) 
0.0086

>  <Gold.PLP.Chemscore.Metal>  (259) 
0.0000

>  <Gold.PLP.Fitness>  (259) 
50.7139

>  <Gold.PLP.PLP>  (259) 
-48.1706

>  <Gold.PLP.ligand.clash>  (259) 
0.0000

>  <Gold.PLP.ligand.torsion>  (259) 
0.2327

>  <Gold.PLP.part.buried>  (259) 
-6.5205

>  <Gold.PLP.part.hbond>  (259) 
-2.0000

>  <Gold.PLP.part.metal>  (259) 
0.0000

>  <Gold.PLP.part.nonpolar>  (259) 
-39.3857

>  <Gold.PLP.part.repulsive>  (259) 
0.3298

>  <Gold.Protein.RotatedAtoms>  (259) 


>  <Gold.Protein.RotatedTorsions>  (259) 


>  <Gold.Protein.RotatedWaterAtoms>  (259) 


>  <Gold.Version>  (259) 
5.3.0

>  <PLP.Chemscore.CHOScore>  (259) 


>  <PLP.Chemscore.Hbond>  (259) 


>  <PLP.Chemscore.Internal.Correction>  (259) 


>  <PLP.Chemscore.Metal>  (259) 


>  <PLP.Fitness>  (259) 


>  <PLP.PLP>  (259) 


>  <PLP.ligand.clash>  (259) 


>  <PLP.ligand.torsion>  (259) 


>  <PLP.part.buried>  (259) 


>  <PLP.part.hbond>  (259) 


>  <PLP.part.metal>  (259) 


>  <PLP.part.nonpolar>  (259) 


>  <PLP.part.repulsive>  (259) 


>  <RMSD>  (259) 
0.439733510035

>  <Torsion>  (259) 
177.672185574

>  <TorsionO>  (259) 
4.31728583372

>  <TorsionR>  (259) 
173.35489974

>  <Version>  (259) 


>  <product>  (259) 
31|Compound_19|Compounds_3D_F|sdf|6|dock4|1

>  <rmsd>  (259) 
-1

$$$$
20|Compound_12|Compounds_3D_F|sdf|5|dock1|1
     RDKit          3D

  6  5  0  0  0  0  0  0  0  0999 V2000
   -5.5779  -12.4625   12.5007 B   0  0  0  0  0  0  0  0  0  0  0  0
   -5.6832  -14.0107   12.2643 C   0  0  0  0  0  0  0  0  0  0  0  0
   -6.7617  -14.5616   12.3226 O   0  0  0  0  0  0  0  0  0  0  0  0
   -4.5737  -14.7282   11.9964 N   0  0  0  0  0  0  0  0  0  0  0  0
   -4.6720  -16.1735   11.7760 C   0  0  0  0  0  0  0  0  0  0  0  0
   -5.3305  -16.8308   12.9907 C   0  0  0  0  0  0  0  0  0  0  0  0
  1  2  1  0
  2  3  2  0
  2  4  1  0
  4  5  1  0
  5  6  1  0
M  END
>  <Gold.Gold.Protein.RotatedWaterAtoms>  (260) 


>  <Gold.Id.Protein>  (260) 


>  <Gold.PLP.Chemscore.CHOScore>  (260) 
0.0000

>  <Gold.PLP.Chemscore.Hbond>  (260) 
1.0000

>  <Gold.PLP.Chemscore.Internal.Correction>  (260) 
0.0000

>  <Gold.PLP.Chemscore.Metal>  (260) 
0.0000

>  <Gold.PLP.Fitness>  (260) 
23.3159

>  <Gold.PLP.PLP>  (260) 
-20.3276

>  <Gold.PLP.ligand.clash>  (260) 
0.0000

>  <Gold.PLP.ligand.torsion>  (260) 
0.0058

>  <Gold.PLP.part.buried>  (260) 
-3.9882

>  <Gold.PLP.part.hbond>  (260) 
-2.0000

>  <Gold.PLP.part.metal>  (260) 
0.0000

>  <Gold.PLP.part.nonpolar>  (260) 
-15.1106

>  <Gold.PLP.part.repulsive>  (260) 
0.2657

>  <Gold.Protein.RotatedAtoms>  (260) 


>  <Gold.Protein.RotatedTorsions>  (260) 


>  <Gold.Protein.RotatedWaterAtoms>  (260) 


>  <Gold.Version>  (260) 
5.3.0

>  <PLP.Chemscore.CHOScore>  (260) 


>  <PLP.Chemscore.Hbond>  (260) 


>  <PLP.Chemscore.Internal.Correction>  (260) 


>  <PLP.Chemscore.Metal>  (260) 


>  <PLP.Fitness>  (260) 


>  <PLP.PLP>  (260) 


>  <PLP.ligand.clash>  (260) 


>  <PLP.ligand.torsion>  (260) 


>  <PLP.part.buried>  (260) 


>  <PLP.part.hbond>  (260) 


>  <PLP.part.metal>  (260) 


>  <PLP.part.nonpolar>  (260) 


>  <PLP.part.repulsive>  (260) 


>  <Version>  (260) 


$$$$
94|664022_40|Aromatic_carboxylic_acids_F|sdf|24|dock1|1
     RDKit          3D

 12 12  0  0  0  0  0  0  0  0999 V2000
   -8.2596  -17.1212   11.4595 C   0  0  0  0  0  0  0  0  0  0  0  0
   -7.6366  -15.8367   11.6688 N   0  0  0  0  0  0  0  0  0  0  0  0
   -8.3409  -14.6553   11.5719 C   0  0  0  0  0  0  0  0  0  0  0  0
   -9.5296  -14.5547   11.2978 O   0  0  0  0  0  0  0  0  0  0  0  0
   -7.5420  -13.4431   11.8503 C   0  0  0  0  0  0  0  0  0  0  0  0
   -8.1627  -12.1983   11.6738 C   0  0  0  0  0  0  0  0  0  0  0  0
   -7.4390  -11.0301   11.9055 C   0  0  0  0  0  0  0  0  0  0  0  0
   -6.1069  -11.0910   12.3103 C   0  0  0  0  0  0  0  0  0  0  0  0
   -5.4897  -12.3324   12.4853 C   0  0  0  0  0  0  0  0  0  0  0  0
   -6.2035  -13.5136   12.2549 C   0  0  0  0  0  0  0  0  0  0  0  0
   -5.3062  -15.1564   12.5638 Br  0  0  0  0  0  0  0  0  0  0  0  0
   -8.1960   -9.5005   11.6887 Cl  0  0  0  0  0  0  0  0  0  0  0  0
  1  2  1  0
  2  3  1  0
  3  4  2  0
  3  5  1  0
  5  6  2  0
  5 10  1  0
  6  7  1  0
  7  8  2  0
  7 12  1  0
  8  9  1  0
  9 10  2  0
 10 11  1  0
M  END
>  <Gold.Gold.Protein.RotatedWaterAtoms>  (261) 


>  <Gold.Id.Protein>  (261) 


>  <Gold.PLP.Chemscore.CHOScore>  (261) 
0.0000

>  <Gold.PLP.Chemscore.Hbond>  (261) 
0.4160

>  <Gold.PLP.Chemscore.Internal.Correction>  (261) 
0.0004

>  <Gold.PLP.Chemscore.Metal>  (261) 
0.0000

>  <Gold.PLP.Fitness>  (261) 
48.9046

>  <Gold.PLP.PLP>  (261) 
-47.6744

>  <Gold.PLP.ligand.clash>  (261) 
0.0000

>  <Gold.PLP.ligand.torsion>  (261) 
0.0091

>  <Gold.PLP.part.buried>  (261) 
-7.3578

>  <Gold.PLP.part.hbond>  (261) 
-0.5127

>  <Gold.PLP.part.metal>  (261) 
0.0000

>  <Gold.PLP.part.nonpolar>  (261) 
-40.3098

>  <Gold.PLP.part.repulsive>  (261) 
0.1684

>  <Gold.Protein.RotatedAtoms>  (261) 


>  <Gold.Protein.RotatedTorsions>  (261) 


>  <Gold.Protein.RotatedWaterAtoms>  (261) 


>  <Gold.Version>  (261) 
5.3.0

>  <PLP.Chemscore.CHOScore>  (261) 


>  <PLP.Chemscore.Hbond>  (261) 


>  <PLP.Chemscore.Internal.Correction>  (261) 


>  <PLP.Chemscore.Metal>  (261) 


>  <PLP.Fitness>  (261) 


>  <PLP.PLP>  (261) 


>  <PLP.ligand.clash>  (261) 


>  <PLP.ligand.torsion>  (261) 


>  <PLP.part.buried>  (261) 


>  <PLP.part.hbond>  (261) 


>  <PLP.part.metal>  (261) 


>  <PLP.part.nonpolar>  (261) 


>  <PLP.part.repulsive>  (261) 


>  <RMSD>  (261) 
0.30972197429

>  <Torsion>  (261) 
172.929186758

>  <TorsionO>  (261) 
24.4968065243

>  <TorsionR>  (261) 
162.574006718

>  <Version>  (261) 


>  <product>  (261) 
20|Compound_12|Compounds_3D_F|sdf|5|dock1|1

>  <rmsd>  (261) 
-1

$$$$
110|565385_49|Aromatic_carboxylic_acids_F|sdf|29|dock1|1
     RDKit          3D

 13 13  0  0  0  0  0  0  0  0999 V2000
  -10.1118  -17.9021   11.6320 C   0  0  0  0  0  0  0  0  0  0  0  0
   -9.7537  -16.5043   11.6546 N   0  0  0  0  0  0  0  0  0  0  0  0
   -8.4330  -16.1187   11.7930 C   0  0  0  0  0  0  0  0  0  0  0  0
   -7.5159  -16.9298   11.9008 O   0  0  0  0  0  0  0  0  0  0  0  0
   -8.1234  -14.6552   11.8105 C   0  0  0  0  0  0  0  0  0  0  0  0
   -9.0636  -13.6551   11.5375 C   0  0  0  0  0  0  0  0  0  0  0  0
   -8.6966  -12.3009   11.5726 C   0  0  0  0  0  0  0  0  0  0  0  0
   -7.3879  -11.9195   11.8809 C   0  0  0  0  0  0  0  0  0  0  0  0
   -6.4486  -12.9235   12.1551 C   0  0  0  0  0  0  0  0  0  0  0  0
   -6.8098  -14.2750   12.1207 C   0  0  0  0  0  0  0  0  0  0  0  0
   -4.6444  -12.5025   12.5849 Br  0  0  0  0  0  0  0  0  0  0  0  0
   -6.9476  -10.6242   11.9372 O   0  0  0  0  0  0  0  0  0  0  0  0
   -7.9020   -9.5910   11.7256 C   0  0  0  0  0  0  0  0  0  0  0  0
  1  2  1  0
  2  3  1  0
  3  4  2  0
  3  5  1  0
  5  6  2  0
  5 10  1  0
  6  7  1  0
  7  8  2  0
  8  9  1  0
  8 12  1  0
  9 10  2  0
  9 11  1  0
 12 13  1  0
M  END
>  <Gold.Gold.Protein.RotatedWaterAtoms>  (262) 


>  <Gold.Id.Protein>  (262) 


>  <Gold.PLP.Chemscore.CHOScore>  (262) 
0.0000

>  <Gold.PLP.Chemscore.Hbond>  (262) 
1.0000

>  <Gold.PLP.Chemscore.Internal.Correction>  (262) 
0.0000

>  <Gold.PLP.Chemscore.Metal>  (262) 
0.0000

>  <Gold.PLP.Fitness>  (262) 
43.9775

>  <Gold.PLP.PLP>  (262) 
-41.0517

>  <Gold.PLP.ligand.clash>  (262) 
0.0000

>  <Gold.PLP.ligand.torsion>  (262) 
0.0371

>  <Gold.PLP.part.buried>  (262) 
-3.7367

>  <Gold.PLP.part.hbond>  (262) 
-1.0000

>  <Gold.PLP.part.metal>  (262) 
0.0000

>  <Gold.PLP.part.nonpolar>  (262) 
-36.7483

>  <Gold.PLP.part.repulsive>  (262) 
0.4054

>  <Gold.Protein.RotatedAtoms>  (262) 


>  <Gold.Protein.RotatedTorsions>  (262) 


>  <Gold.Protein.RotatedWaterAtoms>  (262) 


>  <Gold.Version>  (262) 
5.3.0

>  <PLP.Chemscore.CHOScore>  (262) 


>  <PLP.Chemscore.Hbond>  (262) 


>  <PLP.Chemscore.Internal.Correction>  (262) 


>  <PLP.Chemscore.Metal>  (262) 


>  <PLP.Fitness>  (262) 


>  <PLP.PLP>  (262) 


>  <PLP.ligand.clash>  (262) 


>  <PLP.ligand.torsion>  (262) 


>  <PLP.part.buried>  (262) 


>  <PLP.part.hbond>  (262) 


>  <PLP.part.metal>  (262) 


>  <PLP.part.nonpolar>  (262) 


>  <PLP.part.repulsive>  (262) 


>  <RMSD>  (262) 
0.319376411377

>  <Torsion>  (262) 
169.460450784

>  <TorsionO>  (262) 
9.7963905484

>  <TorsionR>  (262) 
179.256841332

>  <Version>  (262) 


>  <product>  (262) 
20|Compound_12|Compounds_3D_F|sdf|5|dock1|1

>  <rmsd>  (262) 
-1

$$$$
128|137677_56|Aromatic_carboxylic_acids_F|sdf|33|dock1|1
     RDKit          3D

 11 11  0  0  0  0  0  0  0  0999 V2000
   -8.6116  -16.1544   11.8887 C   0  0  0  0  0  0  0  0  0  0  0  0
   -7.9978  -14.8484   11.9215 N   0  0  0  0  0  0  0  0  0  0  0  0
   -8.7778  -13.7008   11.8756 C   0  0  0  0  0  0  0  0  0  0  0  0
  -10.0002  -13.7896   11.8139 O   0  0  0  0  0  0  0  0  0  0  0  0
   -8.0808  -12.3609   11.9017 C   0  0  0  0  0  0  0  0  0  0  0  0
   -8.7916  -11.1851   11.5813 C   0  0  0  0  0  0  0  0  0  0  0  0
   -8.1781   -9.9267   11.5989 C   0  0  0  0  0  0  0  0  0  0  0  0
   -6.8391   -9.8089   11.9369 C   0  0  0  0  0  0  0  0  0  0  0  0
   -6.1124  -10.9502   12.2575 C   0  0  0  0  0  0  0  0  0  0  0  0
   -6.7171  -12.2196   12.2428 C   0  0  0  0  0  0  0  0  0  0  0  0
   -5.5419  -13.6455   12.7121 Br  0  0  0  0  0  0  0  0  0  0  0  0
  1  2  1  0
  2  3  1  0
  3  4  2  0
  3  5  1  0
  5  6  2  0
  5 10  1  0
  6  7  1  0
  7  8  2  0
  8  9  1  0
  9 10  2  0
 10 11  1  0
M  END
>  <Gold.Gold.Protein.RotatedWaterAtoms>  (263) 


>  <Gold.Id.Protein>  (263) 


>  <Gold.PLP.Chemscore.CHOScore>  (263) 
0.0000

>  <Gold.PLP.Chemscore.Hbond>  (263) 
1.0000

>  <Gold.PLP.Chemscore.Internal.Correction>  (263) 
0.0000

>  <Gold.PLP.Chemscore.Metal>  (263) 
0.0000

>  <Gold.PLP.Fitness>  (263) 
45.2899

>  <Gold.PLP.PLP>  (263) 
-42.4444

>  <Gold.PLP.ligand.clash>  (263) 
0.0000

>  <Gold.PLP.ligand.torsion>  (263) 
0.0772

>  <Gold.PLP.part.buried>  (263) 
-6.4690

>  <Gold.PLP.part.hbond>  (263) 
-0.6863

>  <Gold.PLP.part.metal>  (263) 
0.0000

>  <Gold.PLP.part.nonpolar>  (263) 
-34.8280

>  <Gold.PLP.part.repulsive>  (263) 
0.1963

>  <Gold.Protein.RotatedAtoms>  (263) 


>  <Gold.Protein.RotatedTorsions>  (263) 


>  <Gold.Protein.RotatedWaterAtoms>  (263) 


>  <Gold.Version>  (263) 
5.3.0

>  <PLP.Chemscore.CHOScore>  (263) 


>  <PLP.Chemscore.Hbond>  (263) 


>  <PLP.Chemscore.Internal.Correction>  (263) 


>  <PLP.Chemscore.Metal>  (263) 


>  <PLP.Fitness>  (263) 


>  <PLP.PLP>  (263) 


>  <PLP.ligand.clash>  (263) 


>  <PLP.ligand.torsion>  (263) 


>  <PLP.part.buried>  (263) 


>  <PLP.part.hbond>  (263) 


>  <PLP.part.metal>  (263) 


>  <PLP.part.nonpolar>  (263) 


>  <PLP.part.repulsive>  (263) 


>  <RMSD>  (263) 
0.428070490903

>  <Torsion>  (263) 
152.444048788

>  <TorsionO>  (263) 
39.0580871276

>  <TorsionR>  (263) 
168.497864085

>  <Version>  (263) 


>  <product>  (263) 
20|Compound_12|Compounds_3D_F|sdf|5|dock1|1

>  <rmsd>  (263) 
-1

$$$$
974|750794_1404|Aromatic_primary_amines_F|sdf|194|dock3|1
     RDKit          3D

 14 14  0  0  0  0  0  0  0  0999 V2000
  -13.6355  -18.1936    9.4145 C   0  0  0  0  0  0  0  0  0  0  0  0
  -13.2544  -19.4497   10.1732 C   0  0  0  0  0  0  0  0  0  0  0  0
  -11.8731  -19.3506   10.5383 O   0  0  0  0  0  0  0  0  0  0  0  0
  -11.6148  -18.5085   11.5823 C   0  0  0  0  0  0  0  0  0  0  0  0
  -12.3947  -18.2810   12.5004 O   0  0  0  0  0  0  0  0  0  0  0  0
  -10.3031  -17.8985   11.4902 C   0  0  0  0  0  0  0  0  0  0  0  0
   -9.1673  -18.4974   10.9931 C   0  0  0  0  0  0  0  0  0  0  0  0
   -8.1448  -17.6055   11.0758 O   0  0  0  0  0  0  0  0  0  0  0  0
   -8.7110  -16.4917   11.6237 C   0  0  0  0  0  0  0  0  0  0  0  0
   -9.9933  -16.6110   11.8915 N   0  0  0  0  0  0  0  0  0  0  0  0
   -7.9611  -15.3718   11.8549 N   0  0  0  0  0  0  0  0  0  0  0  0
   -8.5046  -14.1249   12.0676 C   0  0  0  0  0  0  0  0  0  0  0  0
   -9.6950  -13.8313   12.1035 O   0  0  0  0  0  0  0  0  0  0  0  0
   -7.4448  -13.0785   12.3021 C   0  0  0  0  0  0  0  0  0  0  0  0
  1  2  1  0
  2  3  1  0
  3  4  1  0
  4  5  2  0
  4  6  1  0
  6  7  2  0
  6 10  1  0
  7  8  1  0
  8  9  1  0
  9 10  2  0
  9 11  1  0
 11 12  1  0
 12 13  2  0
 12 14  1  0
M  END
>  <Gold.Gold.Protein.RotatedWaterAtoms>  (264) 


>  <Gold.Id.Protein>  (264) 


>  <Gold.PLP.Chemscore.CHOScore>  (264) 
0.0000

>  <Gold.PLP.Chemscore.Hbond>  (264) 
2.0000

>  <Gold.PLP.Chemscore.Internal.Correction>  (264) 
0.0053

>  <Gold.PLP.Chemscore.Metal>  (264) 
0.0000

>  <Gold.PLP.Fitness>  (264) 
36.8047

>  <Gold.PLP.PLP>  (264) 
-32.7996

>  <Gold.PLP.ligand.clash>  (264) 
0.0000

>  <Gold.PLP.ligand.torsion>  (264) 
1.0001

>  <Gold.PLP.part.buried>  (264) 
-6.5206

>  <Gold.PLP.part.hbond>  (264) 
-2.9156

>  <Gold.PLP.part.metal>  (264) 
0.0000

>  <Gold.PLP.part.nonpolar>  (264) 
-23.4080

>  <Gold.PLP.part.repulsive>  (264) 
0.3100

>  <Gold.Protein.RotatedAtoms>  (264) 


>  <Gold.Protein.RotatedTorsions>  (264) 


>  <Gold.Protein.RotatedWaterAtoms>  (264) 


>  <Gold.Version>  (264) 
5.3.0

>  <PLP.Chemscore.CHOScore>  (264) 


>  <PLP.Chemscore.Hbond>  (264) 


>  <PLP.Chemscore.Internal.Correction>  (264) 


>  <PLP.Chemscore.Metal>  (264) 


>  <PLP.Fitness>  (264) 


>  <PLP.PLP>  (264) 


>  <PLP.ligand.clash>  (264) 


>  <PLP.ligand.torsion>  (264) 


>  <PLP.part.buried>  (264) 


>  <PLP.part.hbond>  (264) 


>  <PLP.part.metal>  (264) 


>  <PLP.part.nonpolar>  (264) 


>  <PLP.part.repulsive>  (264) 


>  <RMSD>  (264) 
0.499949349045

>  <Torsion>  (264) 
159.973716791

>  <TorsionO>  (264) 
19.1052109979

>  <TorsionR>  (264) 
179.078927789

>  <Version>  (264) 


>  <product>  (264) 
20|Compound_12|Compounds_3D_F|sdf|5|dock1|1

>  <rmsd>  (264) 
-1

$$$$
1884|M3006_1781|Aromatic_primary_amines_F|sdf|361|dock3|1
     RDKit          3D

 31 34  0  0  0  0  0  0  0  0999 V2000
  -14.4210  -19.8971    8.7934 C   0  0  0  0  0  0  0  0  0  0  0  0
  -13.9762  -19.4927   10.1894 C   0  0  0  0  0  0  0  0  0  0  0  0
  -14.1356  -20.6409   11.1817 C   0  0  0  0  0  0  0  0  0  0  0  0
  -13.5197  -20.3070   12.5189 C   0  0  0  0  0  0  0  0  0  0  0  0
  -12.9307  -19.2724   12.7954 O   0  0  0  0  0  0  0  0  0  0  0  0
  -13.7110  -21.3451   13.3845 O   0  0  0  0  0  0  0  0  0  0  0  0
  -12.9425  -21.2698   14.5900 C   0  0  0  0  0  0  0  0  0  0  0  0
  -12.8849  -22.6189   15.2889 C   0  0  0  0  0  0  0  0  0  0  0  0
  -11.6552  -22.4172   16.1494 C   0  0  0  0  0  0  0  0  0  0  0  0
  -11.2420  -23.7410   16.7624 C   0  0  0  0  0  0  0  0  0  0  0  0
  -12.3024  -24.2223   17.5862 O   0  0  0  0  0  0  0  0  0  0  0  0
  -13.7888  -24.3384   16.9603 P   0  0  0  0  0  0  0  0  0  0  0  0
  -14.8775  -24.6795   17.9243 O   0  0  0  0  0  0  0  0  0  0  0  0
  -13.9839  -22.9641   16.1174 O   0  0  0  0  0  0  0  0  0  0  0  0
  -13.5991  -25.4435   15.8075 O   0  0  0  0  0  0  0  0  0  0  0  0
  -10.6922  -21.8161   15.2889 O   0  0  0  0  0  0  0  0  0  0  0  0
  -11.4338  -20.9664   14.3653 C   0  0  0  0  0  0  0  0  0  0  0  0
  -10.9052  -21.2017   13.0342 N   0  0  0  0  0  0  0  0  0  0  0  0
  -10.7814  -22.4114   12.4013 C   0  0  0  0  0  0  0  0  0  0  0  0
  -10.2640  -22.2918   11.1953 N   0  0  0  0  0  0  0  0  0  0  0  0
  -10.0274  -20.9476   11.0424 C   0  0  0  0  0  0  0  0  0  0  0  0
  -10.4203  -20.2487   12.1733 C   0  0  0  0  0  0  0  0  0  0  0  0
  -10.3338  -18.9216   12.3641 N   0  0  0  0  0  0  0  0  0  0  0  0
   -9.8057  -18.2730   11.3024 C   0  0  0  0  0  0  0  0  0  0  0  0
   -9.3808  -18.8370   10.1545 N   0  0  0  0  0  0  0  0  0  0  0  0
   -9.4895  -20.1691   10.0244 C   0  0  0  0  0  0  0  0  0  0  0  0
   -9.0330  -20.6622    8.8349 O   0  0  0  0  0  0  0  0  0  0  0  0
   -9.7222  -16.8901   11.4793 N   0  0  0  0  0  0  0  0  0  0  0  0
   -8.5796  -16.1798   11.7761 C   0  0  0  0  0  0  0  0  0  0  0  0
   -7.4445  -16.6221   11.9131 O   0  0  0  0  0  0  0  0  0  0  0  0
   -8.8524  -14.7024   11.8973 C   0  0  0  0  0  0  0  0  0  0  0  0
  1  2  1  0
  2  3  1  0
  3  4  1  0
  4  5  2  0
  4  6  1  0
  6  7  1  0
  7  8  1  0
  7 17  1  0
  8  9  1  0
  8 14  1  0
  9 10  1  0
  9 16  1  0
 10 11  1  0
 11 12  1  0
 12 13  2  0
 12 14  1  0
 12 15  1  0
 16 17  1  0
 17 18  1  0
 18 19  1  0
 18 22  1  0
 19 20  2  0
 20 21  1  0
 21 22  2  0
 21 26  1  0
 22 23  1  0
 23 24  2  0
 24 25  1  0
 24 28  1  0
 25 26  2  0
 26 27  1  0
 28 29  1  0
 29 30  2  0
 29 31  1  0
M  END
>  <Gold.Gold.Protein.RotatedWaterAtoms>  (265) 


>  <Gold.Id.Protein>  (265) 


>  <Gold.PLP.Chemscore.CHOScore>  (265) 
0.0000

>  <Gold.PLP.Chemscore.Hbond>  (265) 
1.2080

>  <Gold.PLP.Chemscore.Internal.Correction>  (265) 
0.1232

>  <Gold.PLP.Chemscore.Metal>  (265) 
0.0000

>  <Gold.PLP.Fitness>  (265) 
47.7145

>  <Gold.PLP.PLP>  (265) 
-46.0218

>  <Gold.PLP.ligand.clash>  (265) 
0.0000

>  <Gold.PLP.ligand.torsion>  (265) 
1.0272

>  <Gold.PLP.part.buried>  (265) 
-2.2958

>  <Gold.PLP.part.hbond>  (265) 
-4.0214

>  <Gold.PLP.part.metal>  (265) 
0.0000

>  <Gold.PLP.part.nonpolar>  (265) 
-41.4699

>  <Gold.PLP.part.repulsive>  (265) 
0.9524

>  <Gold.Protein.RotatedAtoms>  (265) 


>  <Gold.Protein.RotatedTorsions>  (265) 


>  <Gold.Protein.RotatedWaterAtoms>  (265) 


>  <Gold.Version>  (265) 
5.3.0

>  <PLP.Chemscore.CHOScore>  (265) 


>  <PLP.Chemscore.Hbond>  (265) 


>  <PLP.Chemscore.Internal.Correction>  (265) 


>  <PLP.Chemscore.Metal>  (265) 


>  <PLP.Fitness>  (265) 


>  <PLP.PLP>  (265) 


>  <PLP.ligand.clash>  (265) 


>  <PLP.ligand.torsion>  (265) 


>  <PLP.part.buried>  (265) 


>  <PLP.part.hbond>  (265) 


>  <PLP.part.metal>  (265) 


>  <PLP.part.nonpolar>  (265) 


>  <PLP.part.repulsive>  (265) 


>  <RMSD>  (265) 
0.291955871297

>  <Torsion>  (265) 
171.923704933

>  <TorsionO>  (265) 
6.03609353985

>  <TorsionR>  (265) 
177.959798473

>  <Version>  (265) 


>  <product>  (265) 
20|Compound_12|Compounds_3D_F|sdf|5|dock1|1

>  <rmsd>  (265) 
-1

$$$$
193|32168_281|Aromatic_primary_amines_F|sdf|39|dock6|1
     RDKit          3D

 23 25  0  0  0  0  0  0  0  0999 V2000
   -7.8439  -12.1461   11.8919 C   0  0  0  0  0  0  0  0  0  0  0  0
   -8.5691  -13.4472   11.6781 C   0  0  0  0  0  0  0  0  0  0  0  0
   -9.7886  -13.4981   11.5208 O   0  0  0  0  0  0  0  0  0  0  0  0
   -7.7264  -14.5390   11.7020 N   0  0  0  0  0  0  0  0  0  0  0  0
   -8.1889  -15.8197   11.5323 C   0  0  0  0  0  0  0  0  0  0  0  0
   -9.4747  -16.2039   11.8163 N   0  0  0  0  0  0  0  0  0  0  0  0
   -9.5964  -17.5375   11.5379 C   0  0  0  0  0  0  0  0  0  0  0  0
  -10.6643  -18.4283   11.6415 C   0  0  0  0  0  0  0  0  0  0  0  0
  -10.4051  -19.7586   11.2778 C   0  0  0  0  0  0  0  0  0  0  0  0
   -9.1530  -20.1507   10.7795 C   0  0  0  0  0  0  0  0  0  0  0  0
   -8.1017  -19.2294   10.6839 C   0  0  0  0  0  0  0  0  0  0  0  0
   -8.3349  -17.9032   11.0783 C   0  0  0  0  0  0  0  0  0  0  0  0
   -7.4773  -16.8281   11.0838 N   0  0  0  0  0  0  0  0  0  0  0  0
   -8.8530  -21.7658   10.2429 Cl  0  0  0  0  0  0  0  0  0  0  0  0
  -11.4669  -20.6323   11.3734 O   0  0  0  0  0  0  0  0  0  0  0  0
  -12.5262  -20.4408   10.5053 C   0  0  0  0  0  0  0  0  0  0  0  0
  -13.3188  -19.2846   10.5304 C   0  0  0  0  0  0  0  0  0  0  0  0
  -14.3665  -19.1344    9.6224 C   0  0  0  0  0  0  0  0  0  0  0  0
  -14.6219  -20.1279    8.6796 C   0  0  0  0  0  0  0  0  0  0  0  0
  -13.8238  -21.2756    8.6345 C   0  0  0  0  0  0  0  0  0  0  0  0
  -12.7674  -21.4342    9.5416 C   0  0  0  0  0  0  0  0  0  0  0  0
  -11.7588  -22.8458    9.4996 Cl  0  0  0  0  0  0  0  0  0  0  0  0
  -14.1988  -22.4584    7.4296 Cl  0  0  0  0  0  0  0  0  0  0  0  0
  1  2  1  0
  2  3  2  0
  2  4  1  0
  4  5  1  0
  5  6  1  0
  5 13  2  0
  6  7  1  0
  7  8  2  0
  7 12  1  0
  8  9  1  0
  9 10  2  0
  9 15  1  0
 10 11  1  0
 10 14  1  0
 11 12  2  0
 12 13  1  0
 15 16  1  0
 16 17  2  0
 16 21  1  0
 17 18  1  0
 18 19  2  0
 19 20  1  0
 20 21  2  0
 20 23  1  0
 21 22  1  0
M  END
>  <Gold.Gold.Protein.RotatedWaterAtoms>  (266) 


>  <Gold.Id.Protein>  (266) 


>  <Gold.PLP.Chemscore.CHOScore>  (266) 
0.0000

>  <Gold.PLP.Chemscore.Hbond>  (266) 
1.0000

>  <Gold.PLP.Chemscore.Internal.Correction>  (266) 
0.0086

>  <Gold.PLP.Chemscore.Metal>  (266) 
0.0000

>  <Gold.PLP.Fitness>  (266) 
50.7139

>  <Gold.PLP.PLP>  (266) 
-48.1706

>  <Gold.PLP.ligand.clash>  (266) 
0.0000

>  <Gold.PLP.ligand.torsion>  (266) 
0.2327

>  <Gold.PLP.part.buried>  (266) 
-6.5205

>  <Gold.PLP.part.hbond>  (266) 
-2.0000

>  <Gold.PLP.part.metal>  (266) 
0.0000

>  <Gold.PLP.part.nonpolar>  (266) 
-39.3857

>  <Gold.PLP.part.repulsive>  (266) 
0.3298

>  <Gold.Protein.RotatedAtoms>  (266) 


>  <Gold.Protein.RotatedTorsions>  (266) 


>  <Gold.Protein.RotatedWaterAtoms>  (266) 


>  <Gold.Version>  (266) 
5.3.0

>  <PLP.Chemscore.CHOScore>  (266) 


>  <PLP.Chemscore.Hbond>  (266) 


>  <PLP.Chemscore.Internal.Correction>  (266) 


>  <PLP.Chemscore.Metal>  (266) 


>  <PLP.Fitness>  (266) 


>  <PLP.PLP>  (266) 


>  <PLP.ligand.clash>  (266) 


>  <PLP.ligand.torsion>  (266) 


>  <PLP.part.buried>  (266) 


>  <PLP.part.hbond>  (266) 


>  <PLP.part.metal>  (266) 


>  <PLP.part.nonpolar>  (266) 


>  <PLP.part.repulsive>  (266) 


>  <RMSD>  (266) 
0.439733510035

>  <Torsion>  (266) 
177.672185574

>  <TorsionO>  (266) 
4.31728583372

>  <TorsionR>  (266) 
173.35489974

>  <Version>  (266) 


>  <product>  (266) 
20|Compound_12|Compounds_3D_F|sdf|5|dock1|1

>  <rmsd>  (266) 
-1

$$$$
87|Compound_32|Compounds_3D_F|sdf|14|dock4|1
     RDKit          3D

  9  9  0  0  0  0  0  0  0  0999 V2000
   -5.8663  -15.9535    8.1389 B   0  0  0  0  0  0  0  0  0  0  0  0
   -6.4077  -15.6230    9.5747 C   0  0  0  0  0  0  0  0  0  0  0  0
   -7.5008  -16.0202    9.9175 O   0  0  0  0  0  0  0  0  0  0  0  0
   -5.6568  -14.8970   10.4271 N   0  0  0  0  0  0  0  0  0  0  0  0
   -6.1624  -14.5883   11.7674 C   0  0  0  0  0  0  0  0  0  0  0  0
   -6.0962  -15.7830   12.7207 C   0  0  0  0  0  0  0  0  0  0  0  0
   -5.5932  -13.2858   12.3612 C   0  0  0  0  0  0  0  0  0  0  0  0
   -6.9448  -13.0248   12.7906 O   0  0  0  0  0  0  0  0  0  0  0  0
   -7.5223  -13.8670   11.7680 C   0  0  0  0  0  0  0  0  0  0  0  0
  1  2  1  0
  2  3  2  0
  2  4  1  0
  4  5  1  0
  5  6  1  0
  5  7  1  0
  5  9  1  0
  7  8  1  0
  8  9  1  0
M  END
>  <Gold.Gold.Protein.RotatedWaterAtoms>  (267) 


>  <Gold.Id.Protein>  (267) 


>  <Gold.PLP.Chemscore.CHOScore>  (267) 
0.0000

>  <Gold.PLP.Chemscore.Hbond>  (267) 
1.0000

>  <Gold.PLP.Chemscore.Internal.Correction>  (267) 
0.2523

>  <Gold.PLP.Chemscore.Metal>  (267) 
0.0000

>  <Gold.PLP.Fitness>  (267) 
25.9184

>  <Gold.PLP.PLP>  (267) 
-23.2516

>  <Gold.PLP.ligand.clash>  (267) 
0.0000

>  <Gold.PLP.ligand.torsion>  (267) 
0.2928

>  <Gold.PLP.part.buried>  (267) 
-5.1037

>  <Gold.PLP.part.hbond>  (267) 
-1.0000

>  <Gold.PLP.part.metal>  (267) 
0.0000

>  <Gold.PLP.part.nonpolar>  (267) 
-18.1340

>  <Gold.PLP.part.repulsive>  (267) 
1.1078

>  <Gold.Protein.RotatedAtoms>  (267) 


>  <Gold.Protein.RotatedTorsions>  (267) 


>  <Gold.Protein.RotatedWaterAtoms>  (267) 


>  <Gold.Version>  (267) 
5.3.0

>  <PLP.Chemscore.CHOScore>  (267) 


>  <PLP.Chemscore.Hbond>  (267) 


>  <PLP.Chemscore.Internal.Correction>  (267) 


>  <PLP.Chemscore.Metal>  (267) 


>  <PLP.Fitness>  (267) 


>  <PLP.PLP>  (267) 


>  <PLP.ligand.clash>  (267) 


>  <PLP.ligand.torsion>  (267) 


>  <PLP.part.buried>  (267) 


>  <PLP.part.hbond>  (267) 


>  <PLP.part.metal>  (267) 


>  <PLP.part.nonpolar>  (267) 


>  <PLP.part.repulsive>  (267) 


>  <Version>  (267) 


$$$$
94|664022_40|Aromatic_carboxylic_acids_F|sdf|24|dock1|1
     RDKit          3D

 12 12  0  0  0  0  0  0  0  0999 V2000
   -8.2596  -17.1212   11.4595 C   0  0  0  0  0  0  0  0  0  0  0  0
   -7.6366  -15.8367   11.6688 N   0  0  0  0  0  0  0  0  0  0  0  0
   -8.3409  -14.6553   11.5719 C   0  0  0  0  0  0  0  0  0  0  0  0
   -9.5296  -14.5547   11.2978 O   0  0  0  0  0  0  0  0  0  0  0  0
   -7.5420  -13.4431   11.8503 C   0  0  0  0  0  0  0  0  0  0  0  0
   -8.1627  -12.1983   11.6738 C   0  0  0  0  0  0  0  0  0  0  0  0
   -7.4390  -11.0301   11.9055 C   0  0  0  0  0  0  0  0  0  0  0  0
   -6.1069  -11.0910   12.3103 C   0  0  0  0  0  0  0  0  0  0  0  0
   -5.4897  -12.3324   12.4853 C   0  0  0  0  0  0  0  0  0  0  0  0
   -6.2035  -13.5136   12.2549 C   0  0  0  0  0  0  0  0  0  0  0  0
   -5.3062  -15.1564   12.5638 Br  0  0  0  0  0  0  0  0  0  0  0  0
   -8.1960   -9.5005   11.6887 Cl  0  0  0  0  0  0  0  0  0  0  0  0
  1  2  1  0
  2  3  1  0
  3  4  2  0
  3  5  1  0
  5  6  2  0
  5 10  1  0
  6  7  1  0
  7  8  2  0
  7 12  1  0
  8  9  1  0
  9 10  2  0
 10 11  1  0
M  END
>  <Gold.Gold.Protein.RotatedWaterAtoms>  (268) 


>  <Gold.Id.Protein>  (268) 


>  <Gold.PLP.Chemscore.CHOScore>  (268) 
0.0000

>  <Gold.PLP.Chemscore.Hbond>  (268) 
0.4160

>  <Gold.PLP.Chemscore.Internal.Correction>  (268) 
0.0004

>  <Gold.PLP.Chemscore.Metal>  (268) 
0.0000

>  <Gold.PLP.Fitness>  (268) 
48.9046

>  <Gold.PLP.PLP>  (268) 
-47.6744

>  <Gold.PLP.ligand.clash>  (268) 
0.0000

>  <Gold.PLP.ligand.torsion>  (268) 
0.0091

>  <Gold.PLP.part.buried>  (268) 
-7.3578

>  <Gold.PLP.part.hbond>  (268) 
-0.5127

>  <Gold.PLP.part.metal>  (268) 
0.0000

>  <Gold.PLP.part.nonpolar>  (268) 
-40.3098

>  <Gold.PLP.part.repulsive>  (268) 
0.1684

>  <Gold.Protein.RotatedAtoms>  (268) 


>  <Gold.Protein.RotatedTorsions>  (268) 


>  <Gold.Protein.RotatedWaterAtoms>  (268) 


>  <Gold.Version>  (268) 
5.3.0

>  <PLP.Chemscore.CHOScore>  (268) 


>  <PLP.Chemscore.Hbond>  (268) 


>  <PLP.Chemscore.Internal.Correction>  (268) 


>  <PLP.Chemscore.Metal>  (268) 


>  <PLP.Fitness>  (268) 


>  <PLP.PLP>  (268) 


>  <PLP.ligand.clash>  (268) 


>  <PLP.ligand.torsion>  (268) 


>  <PLP.part.buried>  (268) 


>  <PLP.part.hbond>  (268) 


>  <PLP.part.metal>  (268) 


>  <PLP.part.nonpolar>  (268) 


>  <PLP.part.repulsive>  (268) 


>  <RMSD>  (268) 
0.30972197429

>  <Torsion>  (268) 
172.929186758

>  <TorsionO>  (268) 
24.4968065243

>  <TorsionR>  (268) 
162.574006718

>  <Version>  (268) 


>  <product>  (268) 
87|Compound_32|Compounds_3D_F|sdf|14|dock4|1

>  <rmsd>  (268) 
-1

$$$$
110|565385_49|Aromatic_carboxylic_acids_F|sdf|29|dock1|1
     RDKit          3D

 13 13  0  0  0  0  0  0  0  0999 V2000
  -10.1118  -17.9021   11.6320 C   0  0  0  0  0  0  0  0  0  0  0  0
   -9.7537  -16.5043   11.6546 N   0  0  0  0  0  0  0  0  0  0  0  0
   -8.4330  -16.1187   11.7930 C   0  0  0  0  0  0  0  0  0  0  0  0
   -7.5159  -16.9298   11.9008 O   0  0  0  0  0  0  0  0  0  0  0  0
   -8.1234  -14.6552   11.8105 C   0  0  0  0  0  0  0  0  0  0  0  0
   -9.0636  -13.6551   11.5375 C   0  0  0  0  0  0  0  0  0  0  0  0
   -8.6966  -12.3009   11.5726 C   0  0  0  0  0  0  0  0  0  0  0  0
   -7.3879  -11.9195   11.8809 C   0  0  0  0  0  0  0  0  0  0  0  0
   -6.4486  -12.9235   12.1551 C   0  0  0  0  0  0  0  0  0  0  0  0
   -6.8098  -14.2750   12.1207 C   0  0  0  0  0  0  0  0  0  0  0  0
   -4.6444  -12.5025   12.5849 Br  0  0  0  0  0  0  0  0  0  0  0  0
   -6.9476  -10.6242   11.9372 O   0  0  0  0  0  0  0  0  0  0  0  0
   -7.9020   -9.5910   11.7256 C   0  0  0  0  0  0  0  0  0  0  0  0
  1  2  1  0
  2  3  1  0
  3  4  2  0
  3  5  1  0
  5  6  2  0
  5 10  1  0
  6  7  1  0
  7  8  2  0
  8  9  1  0
  8 12  1  0
  9 10  2  0
  9 11  1  0
 12 13  1  0
M  END
>  <Gold.Gold.Protein.RotatedWaterAtoms>  (269) 


>  <Gold.Id.Protein>  (269) 


>  <Gold.PLP.Chemscore.CHOScore>  (269) 
0.0000

>  <Gold.PLP.Chemscore.Hbond>  (269) 
1.0000

>  <Gold.PLP.Chemscore.Internal.Correction>  (269) 
0.0000

>  <Gold.PLP.Chemscore.Metal>  (269) 
0.0000

>  <Gold.PLP.Fitness>  (269) 
43.9775

>  <Gold.PLP.PLP>  (269) 
-41.0517

>  <Gold.PLP.ligand.clash>  (269) 
0.0000

>  <Gold.PLP.ligand.torsion>  (269) 
0.0371

>  <Gold.PLP.part.buried>  (269) 
-3.7367

>  <Gold.PLP.part.hbond>  (269) 
-1.0000

>  <Gold.PLP.part.metal>  (269) 
0.0000

>  <Gold.PLP.part.nonpolar>  (269) 
-36.7483

>  <Gold.PLP.part.repulsive>  (269) 
0.4054

>  <Gold.Protein.RotatedAtoms>  (269) 


>  <Gold.Protein.RotatedTorsions>  (269) 


>  <Gold.Protein.RotatedWaterAtoms>  (269) 


>  <Gold.Version>  (269) 
5.3.0

>  <PLP.Chemscore.CHOScore>  (269) 


>  <PLP.Chemscore.Hbond>  (269) 


>  <PLP.Chemscore.Internal.Correction>  (269) 


>  <PLP.Chemscore.Metal>  (269) 


>  <PLP.Fitness>  (269) 


>  <PLP.PLP>  (269) 


>  <PLP.ligand.clash>  (269) 


>  <PLP.ligand.torsion>  (269) 


>  <PLP.part.buried>  (269) 


>  <PLP.part.hbond>  (269) 


>  <PLP.part.metal>  (269) 


>  <PLP.part.nonpolar>  (269) 


>  <PLP.part.repulsive>  (269) 


>  <RMSD>  (269) 
0.319376411377

>  <Torsion>  (269) 
169.460450784

>  <TorsionO>  (269) 
9.7963905484

>  <TorsionR>  (269) 
179.256841332

>  <Version>  (269) 


>  <product>  (269) 
87|Compound_32|Compounds_3D_F|sdf|14|dock4|1

>  <rmsd>  (269) 
-1

$$$$
128|137677_56|Aromatic_carboxylic_acids_F|sdf|33|dock1|1
     RDKit          3D

 11 11  0  0  0  0  0  0  0  0999 V2000
   -8.6116  -16.1544   11.8887 C   0  0  0  0  0  0  0  0  0  0  0  0
   -7.9978  -14.8484   11.9215 N   0  0  0  0  0  0  0  0  0  0  0  0
   -8.7778  -13.7008   11.8756 C   0  0  0  0  0  0  0  0  0  0  0  0
  -10.0002  -13.7896   11.8139 O   0  0  0  0  0  0  0  0  0  0  0  0
   -8.0808  -12.3609   11.9017 C   0  0  0  0  0  0  0  0  0  0  0  0
   -8.7916  -11.1851   11.5813 C   0  0  0  0  0  0  0  0  0  0  0  0
   -8.1781   -9.9267   11.5989 C   0  0  0  0  0  0  0  0  0  0  0  0
   -6.8391   -9.8089   11.9369 C   0  0  0  0  0  0  0  0  0  0  0  0
   -6.1124  -10.9502   12.2575 C   0  0  0  0  0  0  0  0  0  0  0  0
   -6.7171  -12.2196   12.2428 C   0  0  0  0  0  0  0  0  0  0  0  0
   -5.5419  -13.6455   12.7121 Br  0  0  0  0  0  0  0  0  0  0  0  0
  1  2  1  0
  2  3  1  0
  3  4  2  0
  3  5  1  0
  5  6  2  0
  5 10  1  0
  6  7  1  0
  7  8  2  0
  8  9  1  0
  9 10  2  0
 10 11  1  0
M  END
>  <Gold.Gold.Protein.RotatedWaterAtoms>  (270) 


>  <Gold.Id.Protein>  (270) 


>  <Gold.PLP.Chemscore.CHOScore>  (270) 
0.0000

>  <Gold.PLP.Chemscore.Hbond>  (270) 
1.0000

>  <Gold.PLP.Chemscore.Internal.Correction>  (270) 
0.0000

>  <Gold.PLP.Chemscore.Metal>  (270) 
0.0000

>  <Gold.PLP.Fitness>  (270) 
45.2899

>  <Gold.PLP.PLP>  (270) 
-42.4444

>  <Gold.PLP.ligand.clash>  (270) 
0.0000

>  <Gold.PLP.ligand.torsion>  (270) 
0.0772

>  <Gold.PLP.part.buried>  (270) 
-6.4690

>  <Gold.PLP.part.hbond>  (270) 
-0.6863

>  <Gold.PLP.part.metal>  (270) 
0.0000

>  <Gold.PLP.part.nonpolar>  (270) 
-34.8280

>  <Gold.PLP.part.repulsive>  (270) 
0.1963

>  <Gold.Protein.RotatedAtoms>  (270) 


>  <Gold.Protein.RotatedTorsions>  (270) 


>  <Gold.Protein.RotatedWaterAtoms>  (270) 


>  <Gold.Version>  (270) 
5.3.0

>  <PLP.Chemscore.CHOScore>  (270) 


>  <PLP.Chemscore.Hbond>  (270) 


>  <PLP.Chemscore.Internal.Correction>  (270) 


>  <PLP.Chemscore.Metal>  (270) 


>  <PLP.Fitness>  (270) 


>  <PLP.PLP>  (270) 


>  <PLP.ligand.clash>  (270) 


>  <PLP.ligand.torsion>  (270) 


>  <PLP.part.buried>  (270) 


>  <PLP.part.hbond>  (270) 


>  <PLP.part.metal>  (270) 


>  <PLP.part.nonpolar>  (270) 


>  <PLP.part.repulsive>  (270) 


>  <RMSD>  (270) 
0.428070490903

>  <Torsion>  (270) 
152.444048788

>  <TorsionO>  (270) 
39.0580871276

>  <TorsionR>  (270) 
168.497864085

>  <Version>  (270) 


>  <product>  (270) 
87|Compound_32|Compounds_3D_F|sdf|14|dock4|1

>  <rmsd>  (270) 
-1

$$$$
974|750794_1404|Aromatic_primary_amines_F|sdf|194|dock3|1
     RDKit          3D

 14 14  0  0  0  0  0  0  0  0999 V2000
  -13.6355  -18.1936    9.4145 C   0  0  0  0  0  0  0  0  0  0  0  0
  -13.2544  -19.4497   10.1732 C   0  0  0  0  0  0  0  0  0  0  0  0
  -11.8731  -19.3506   10.5383 O   0  0  0  0  0  0  0  0  0  0  0  0
  -11.6148  -18.5085   11.5823 C   0  0  0  0  0  0  0  0  0  0  0  0
  -12.3947  -18.2810   12.5004 O   0  0  0  0  0  0  0  0  0  0  0  0
  -10.3031  -17.8985   11.4902 C   0  0  0  0  0  0  0  0  0  0  0  0
   -9.1673  -18.4974   10.9931 C   0  0  0  0  0  0  0  0  0  0  0  0
   -8.1448  -17.6055   11.0758 O   0  0  0  0  0  0  0  0  0  0  0  0
   -8.7110  -16.4917   11.6237 C   0  0  0  0  0  0  0  0  0  0  0  0
   -9.9933  -16.6110   11.8915 N   0  0  0  0  0  0  0  0  0  0  0  0
   -7.9611  -15.3718   11.8549 N   0  0  0  0  0  0  0  0  0  0  0  0
   -8.5046  -14.1249   12.0676 C   0  0  0  0  0  0  0  0  0  0  0  0
   -9.6950  -13.8313   12.1035 O   0  0  0  0  0  0  0  0  0  0  0  0
   -7.4448  -13.0785   12.3021 C   0  0  0  0  0  0  0  0  0  0  0  0
  1  2  1  0
  2  3  1  0
  3  4  1  0
  4  5  2  0
  4  6  1  0
  6  7  2  0
  6 10  1  0
  7  8  1  0
  8  9  1  0
  9 10  2  0
  9 11  1  0
 11 12  1  0
 12 13  2  0
 12 14  1  0
M  END
>  <Gold.Gold.Protein.RotatedWaterAtoms>  (271) 


>  <Gold.Id.Protein>  (271) 


>  <Gold.PLP.Chemscore.CHOScore>  (271) 
0.0000

>  <Gold.PLP.Chemscore.Hbond>  (271) 
2.0000

>  <Gold.PLP.Chemscore.Internal.Correction>  (271) 
0.0053

>  <Gold.PLP.Chemscore.Metal>  (271) 
0.0000

>  <Gold.PLP.Fitness>  (271) 
36.8047

>  <Gold.PLP.PLP>  (271) 
-32.7996

>  <Gold.PLP.ligand.clash>  (271) 
0.0000

>  <Gold.PLP.ligand.torsion>  (271) 
1.0001

>  <Gold.PLP.part.buried>  (271) 
-6.5206

>  <Gold.PLP.part.hbond>  (271) 
-2.9156

>  <Gold.PLP.part.metal>  (271) 
0.0000

>  <Gold.PLP.part.nonpolar>  (271) 
-23.4080

>  <Gold.PLP.part.repulsive>  (271) 
0.3100

>  <Gold.Protein.RotatedAtoms>  (271) 


>  <Gold.Protein.RotatedTorsions>  (271) 


>  <Gold.Protein.RotatedWaterAtoms>  (271) 


>  <Gold.Version>  (271) 
5.3.0

>  <PLP.Chemscore.CHOScore>  (271) 


>  <PLP.Chemscore.Hbond>  (271) 


>  <PLP.Chemscore.Internal.Correction>  (271) 


>  <PLP.Chemscore.Metal>  (271) 


>  <PLP.Fitness>  (271) 


>  <PLP.PLP>  (271) 


>  <PLP.ligand.clash>  (271) 


>  <PLP.ligand.torsion>  (271) 


>  <PLP.part.buried>  (271) 


>  <PLP.part.hbond>  (271) 


>  <PLP.part.metal>  (271) 


>  <PLP.part.nonpolar>  (271) 


>  <PLP.part.repulsive>  (271) 


>  <RMSD>  (271) 
0.499949349045

>  <Torsion>  (271) 
159.973716791

>  <TorsionO>  (271) 
19.1052109979

>  <TorsionR>  (271) 
179.078927789

>  <Version>  (271) 


>  <product>  (271) 
87|Compound_32|Compounds_3D_F|sdf|14|dock4|1

>  <rmsd>  (271) 
-1

$$$$
1884|M3006_1781|Aromatic_primary_amines_F|sdf|361|dock3|1
     RDKit          3D

 31 34  0  0  0  0  0  0  0  0999 V2000
  -14.4210  -19.8971    8.7934 C   0  0  0  0  0  0  0  0  0  0  0  0
  -13.9762  -19.4927   10.1894 C   0  0  0  0  0  0  0  0  0  0  0  0
  -14.1356  -20.6409   11.1817 C   0  0  0  0  0  0  0  0  0  0  0  0
  -13.5197  -20.3070   12.5189 C   0  0  0  0  0  0  0  0  0  0  0  0
  -12.9307  -19.2724   12.7954 O   0  0  0  0  0  0  0  0  0  0  0  0
  -13.7110  -21.3451   13.3845 O   0  0  0  0  0  0  0  0  0  0  0  0
  -12.9425  -21.2698   14.5900 C   0  0  0  0  0  0  0  0  0  0  0  0
  -12.8849  -22.6189   15.2889 C   0  0  0  0  0  0  0  0  0  0  0  0
  -11.6552  -22.4172   16.1494 C   0  0  0  0  0  0  0  0  0  0  0  0
  -11.2420  -23.7410   16.7624 C   0  0  0  0  0  0  0  0  0  0  0  0
  -12.3024  -24.2223   17.5862 O   0  0  0  0  0  0  0  0  0  0  0  0
  -13.7888  -24.3384   16.9603 P   0  0  0  0  0  0  0  0  0  0  0  0
  -14.8775  -24.6795   17.9243 O   0  0  0  0  0  0  0  0  0  0  0  0
  -13.9839  -22.9641   16.1174 O   0  0  0  0  0  0  0  0  0  0  0  0
  -13.5991  -25.4435   15.8075 O   0  0  0  0  0  0  0  0  0  0  0  0
  -10.6922  -21.8161   15.2889 O   0  0  0  0  0  0  0  0  0  0  0  0
  -11.4338  -20.9664   14.3653 C   0  0  0  0  0  0  0  0  0  0  0  0
  -10.9052  -21.2017   13.0342 N   0  0  0  0  0  0  0  0  0  0  0  0
  -10.7814  -22.4114   12.4013 C   0  0  0  0  0  0  0  0  0  0  0  0
  -10.2640  -22.2918   11.1953 N   0  0  0  0  0  0  0  0  0  0  0  0
  -10.0274  -20.9476   11.0424 C   0  0  0  0  0  0  0  0  0  0  0  0
  -10.4203  -20.2487   12.1733 C   0  0  0  0  0  0  0  0  0  0  0  0
  -10.3338  -18.9216   12.3641 N   0  0  0  0  0  0  0  0  0  0  0  0
   -9.8057  -18.2730   11.3024 C   0  0  0  0  0  0  0  0  0  0  0  0
   -9.3808  -18.8370   10.1545 N   0  0  0  0  0  0  0  0  0  0  0  0
   -9.4895  -20.1691   10.0244 C   0  0  0  0  0  0  0  0  0  0  0  0
   -9.0330  -20.6622    8.8349 O   0  0  0  0  0  0  0  0  0  0  0  0
   -9.7222  -16.8901   11.4793 N   0  0  0  0  0  0  0  0  0  0  0  0
   -8.5796  -16.1798   11.7761 C   0  0  0  0  0  0  0  0  0  0  0  0
   -7.4445  -16.6221   11.9131 O   0  0  0  0  0  0  0  0  0  0  0  0
   -8.8524  -14.7024   11.8973 C   0  0  0  0  0  0  0  0  0  0  0  0
  1  2  1  0
  2  3  1  0
  3  4  1  0
  4  5  2  0
  4  6  1  0
  6  7  1  0
  7  8  1  0
  7 17  1  0
  8  9  1  0
  8 14  1  0
  9 10  1  0
  9 16  1  0
 10 11  1  0
 11 12  1  0
 12 13  2  0
 12 14  1  0
 12 15  1  0
 16 17  1  0
 17 18  1  0
 18 19  1  0
 18 22  1  0
 19 20  2  0
 20 21  1  0
 21 22  2  0
 21 26  1  0
 22 23  1  0
 23 24  2  0
 24 25  1  0
 24 28  1  0
 25 26  2  0
 26 27  1  0
 28 29  1  0
 29 30  2  0
 29 31  1  0
M  END
>  <Gold.Gold.Protein.RotatedWaterAtoms>  (272) 


>  <Gold.Id.Protein>  (272) 


>  <Gold.PLP.Chemscore.CHOScore>  (272) 
0.0000

>  <Gold.PLP.Chemscore.Hbond>  (272) 
1.2080

>  <Gold.PLP.Chemscore.Internal.Correction>  (272) 
0.1232

>  <Gold.PLP.Chemscore.Metal>  (272) 
0.0000

>  <Gold.PLP.Fitness>  (272) 
47.7145

>  <Gold.PLP.PLP>  (272) 
-46.0218

>  <Gold.PLP.ligand.clash>  (272) 
0.0000

>  <Gold.PLP.ligand.torsion>  (272) 
1.0272

>  <Gold.PLP.part.buried>  (272) 
-2.2958

>  <Gold.PLP.part.hbond>  (272) 
-4.0214

>  <Gold.PLP.part.metal>  (272) 
0.0000

>  <Gold.PLP.part.nonpolar>  (272) 
-41.4699

>  <Gold.PLP.part.repulsive>  (272) 
0.9524

>  <Gold.Protein.RotatedAtoms>  (272) 


>  <Gold.Protein.RotatedTorsions>  (272) 


>  <Gold.Protein.RotatedWaterAtoms>  (272) 


>  <Gold.Version>  (272) 
5.3.0

>  <PLP.Chemscore.CHOScore>  (272) 


>  <PLP.Chemscore.Hbond>  (272) 


>  <PLP.Chemscore.Internal.Correction>  (272) 


>  <PLP.Chemscore.Metal>  (272) 


>  <PLP.Fitness>  (272) 


>  <PLP.PLP>  (272) 


>  <PLP.ligand.clash>  (272) 


>  <PLP.ligand.torsion>  (272) 


>  <PLP.part.buried>  (272) 


>  <PLP.part.hbond>  (272) 


>  <PLP.part.metal>  (272) 


>  <PLP.part.nonpolar>  (272) 


>  <PLP.part.repulsive>  (272) 


>  <RMSD>  (272) 
0.291955871297

>  <Torsion>  (272) 
171.923704933

>  <TorsionO>  (272) 
6.03609353985

>  <TorsionR>  (272) 
177.959798473

>  <Version>  (272) 


>  <product>  (272) 
87|Compound_32|Compounds_3D_F|sdf|14|dock4|1

>  <rmsd>  (272) 
-1

$$$$
193|32168_281|Aromatic_primary_amines_F|sdf|39|dock6|1
     RDKit          3D

 23 25  0  0  0  0  0  0  0  0999 V2000
   -7.8439  -12.1461   11.8919 C   0  0  0  0  0  0  0  0  0  0  0  0
   -8.5691  -13.4472   11.6781 C   0  0  0  0  0  0  0  0  0  0  0  0
   -9.7886  -13.4981   11.5208 O   0  0  0  0  0  0  0  0  0  0  0  0
   -7.7264  -14.5390   11.7020 N   0  0  0  0  0  0  0  0  0  0  0  0
   -8.1889  -15.8197   11.5323 C   0  0  0  0  0  0  0  0  0  0  0  0
   -9.4747  -16.2039   11.8163 N   0  0  0  0  0  0  0  0  0  0  0  0
   -9.5964  -17.5375   11.5379 C   0  0  0  0  0  0  0  0  0  0  0  0
  -10.6643  -18.4283   11.6415 C   0  0  0  0  0  0  0  0  0  0  0  0
  -10.4051  -19.7586   11.2778 C   0  0  0  0  0  0  0  0  0  0  0  0
   -9.1530  -20.1507   10.7795 C   0  0  0  0  0  0  0  0  0  0  0  0
   -8.1017  -19.2294   10.6839 C   0  0  0  0  0  0  0  0  0  0  0  0
   -8.3349  -17.9032   11.0783 C   0  0  0  0  0  0  0  0  0  0  0  0
   -7.4773  -16.8281   11.0838 N   0  0  0  0  0  0  0  0  0  0  0  0
   -8.8530  -21.7658   10.2429 Cl  0  0  0  0  0  0  0  0  0  0  0  0
  -11.4669  -20.6323   11.3734 O   0  0  0  0  0  0  0  0  0  0  0  0
  -12.5262  -20.4408   10.5053 C   0  0  0  0  0  0  0  0  0  0  0  0
  -13.3188  -19.2846   10.5304 C   0  0  0  0  0  0  0  0  0  0  0  0
  -14.3665  -19.1344    9.6224 C   0  0  0  0  0  0  0  0  0  0  0  0
  -14.6219  -20.1279    8.6796 C   0  0  0  0  0  0  0  0  0  0  0  0
  -13.8238  -21.2756    8.6345 C   0  0  0  0  0  0  0  0  0  0  0  0
  -12.7674  -21.4342    9.5416 C   0  0  0  0  0  0  0  0  0  0  0  0
  -11.7588  -22.8458    9.4996 Cl  0  0  0  0  0  0  0  0  0  0  0  0
  -14.1988  -22.4584    7.4296 Cl  0  0  0  0  0  0  0  0  0  0  0  0
  1  2  1  0
  2  3  2  0
  2  4  1  0
  4  5  1  0
  5  6  1  0
  5 13  2  0
  6  7  1  0
  7  8  2  0
  7 12  1  0
  8  9  1  0
  9 10  2  0
  9 15  1  0
 10 11  1  0
 10 14  1  0
 11 12  2  0
 12 13  1  0
 15 16  1  0
 16 17  2  0
 16 21  1  0
 17 18  1  0
 18 19  2  0
 19 20  1  0
 20 21  2  0
 20 23  1  0
 21 22  1  0
M  END
>  <Gold.Gold.Protein.RotatedWaterAtoms>  (273) 


>  <Gold.Id.Protein>  (273) 


>  <Gold.PLP.Chemscore.CHOScore>  (273) 
0.0000

>  <Gold.PLP.Chemscore.Hbond>  (273) 
1.0000

>  <Gold.PLP.Chemscore.Internal.Correction>  (273) 
0.0086

>  <Gold.PLP.Chemscore.Metal>  (273) 
0.0000

>  <Gold.PLP.Fitness>  (273) 
50.7139

>  <Gold.PLP.PLP>  (273) 
-48.1706

>  <Gold.PLP.ligand.clash>  (273) 
0.0000

>  <Gold.PLP.ligand.torsion>  (273) 
0.2327

>  <Gold.PLP.part.buried>  (273) 
-6.5205

>  <Gold.PLP.part.hbond>  (273) 
-2.0000

>  <Gold.PLP.part.metal>  (273) 
0.0000

>  <Gold.PLP.part.nonpolar>  (273) 
-39.3857

>  <Gold.PLP.part.repulsive>  (273) 
0.3298

>  <Gold.Protein.RotatedAtoms>  (273) 


>  <Gold.Protein.RotatedTorsions>  (273) 


>  <Gold.Protein.RotatedWaterAtoms>  (273) 


>  <Gold.Version>  (273) 
5.3.0

>  <PLP.Chemscore.CHOScore>  (273) 


>  <PLP.Chemscore.Hbond>  (273) 


>  <PLP.Chemscore.Internal.Correction>  (273) 


>  <PLP.Chemscore.Metal>  (273) 


>  <PLP.Fitness>  (273) 


>  <PLP.PLP>  (273) 


>  <PLP.ligand.clash>  (273) 


>  <PLP.ligand.torsion>  (273) 


>  <PLP.part.buried>  (273) 


>  <PLP.part.hbond>  (273) 


>  <PLP.part.metal>  (273) 


>  <PLP.part.nonpolar>  (273) 


>  <PLP.part.repulsive>  (273) 


>  <RMSD>  (273) 
0.439733510035

>  <Torsion>  (273) 
177.672185574

>  <TorsionO>  (273) 
4.31728583372

>  <TorsionR>  (273) 
173.35489974

>  <Version>  (273) 


>  <product>  (273) 
87|Compound_32|Compounds_3D_F|sdf|14|dock4|1

>  <rmsd>  (273) 
-1

$$$$
13|Compound_8|Compounds_3D_F|sdf|4|dock3|1
     RDKit          3D

  8  7  0  0  0  0  0  0  0  0999 V2000
   -8.4000  -13.5786   12.9943 O   0  0  0  0  0  0  0  0  0  0  0  0
   -7.4110  -14.2538   12.2151 C   0  0  0  0  0  0  0  0  0  0  0  0
   -6.0173  -13.8612   12.7079 C   0  0  0  0  0  0  0  0  0  0  0  0
   -5.0065  -14.6249   11.9714 N   0  0  0  0  0  0  0  0  0  0  0  0
   -4.9582  -15.9671   12.0875 C   0  0  0  0  0  0  0  0  0  0  0  0
   -5.7523  -16.5415   12.8010 O   0  0  0  0  0  0  0  0  0  0  0  0
   -3.8751  -16.7845   11.2991 B   0  0  0  0  0  0  0  0  0  0  0  0
   -5.7963  -12.3652   12.4750 C   0  0  0  0  0  0  0  0  0  0  0  0
  1  2  1  0
  2  3  1  0
  3  4  1  0
  3  8  1  0
  4  5  1  0
  5  6  2  0
  5  7  1  0
M  END
>  <Gold.Gold.Protein.RotatedWaterAtoms>  (274) 


>  <Gold.Id.Protein>  (274) 


>  <Gold.PLP.Chemscore.CHOScore>  (274) 
0.0000

>  <Gold.PLP.Chemscore.Hbond>  (274) 
1.9663

>  <Gold.PLP.Chemscore.Internal.Correction>  (274) 
0.0000

>  <Gold.PLP.Chemscore.Metal>  (274) 
0.0000

>  <Gold.PLP.Fitness>  (274) 
30.9119

>  <Gold.PLP.PLP>  (274) 
-25.0574

>  <Gold.PLP.ligand.clash>  (274) 
0.0000

>  <Gold.PLP.ligand.torsion>  (274) 
0.0221

>  <Gold.PLP.part.buried>  (274) 
-5.4466

>  <Gold.PLP.part.hbond>  (274) 
-2.4739

>  <Gold.PLP.part.metal>  (274) 
0.0000

>  <Gold.PLP.part.nonpolar>  (274) 
-17.5582

>  <Gold.PLP.part.repulsive>  (274) 
0.1495

>  <Gold.Protein.RotatedAtoms>  (274) 


>  <Gold.Protein.RotatedTorsions>  (274) 


>  <Gold.Protein.RotatedWaterAtoms>  (274) 


>  <Gold.Version>  (274) 
5.3.0

>  <PLP.Chemscore.CHOScore>  (274) 


>  <PLP.Chemscore.Hbond>  (274) 


>  <PLP.Chemscore.Internal.Correction>  (274) 


>  <PLP.Chemscore.Metal>  (274) 


>  <PLP.Fitness>  (274) 


>  <PLP.PLP>  (274) 


>  <PLP.ligand.clash>  (274) 


>  <PLP.ligand.torsion>  (274) 


>  <PLP.part.buried>  (274) 


>  <PLP.part.hbond>  (274) 


>  <PLP.part.metal>  (274) 


>  <PLP.part.nonpolar>  (274) 


>  <PLP.part.repulsive>  (274) 


>  <Version>  (274) 


$$$$
94|664022_40|Aromatic_carboxylic_acids_F|sdf|24|dock1|1
     RDKit          3D

 12 12  0  0  0  0  0  0  0  0999 V2000
   -8.2596  -17.1212   11.4595 C   0  0  0  0  0  0  0  0  0  0  0  0
   -7.6366  -15.8367   11.6688 N   0  0  0  0  0  0  0  0  0  0  0  0
   -8.3409  -14.6553   11.5719 C   0  0  0  0  0  0  0  0  0  0  0  0
   -9.5296  -14.5547   11.2978 O   0  0  0  0  0  0  0  0  0  0  0  0
   -7.5420  -13.4431   11.8503 C   0  0  0  0  0  0  0  0  0  0  0  0
   -8.1627  -12.1983   11.6738 C   0  0  0  0  0  0  0  0  0  0  0  0
   -7.4390  -11.0301   11.9055 C   0  0  0  0  0  0  0  0  0  0  0  0
   -6.1069  -11.0910   12.3103 C   0  0  0  0  0  0  0  0  0  0  0  0
   -5.4897  -12.3324   12.4853 C   0  0  0  0  0  0  0  0  0  0  0  0
   -6.2035  -13.5136   12.2549 C   0  0  0  0  0  0  0  0  0  0  0  0
   -5.3062  -15.1564   12.5638 Br  0  0  0  0  0  0  0  0  0  0  0  0
   -8.1960   -9.5005   11.6887 Cl  0  0  0  0  0  0  0  0  0  0  0  0
  1  2  1  0
  2  3  1  0
  3  4  2  0
  3  5  1  0
  5  6  2  0
  5 10  1  0
  6  7  1  0
  7  8  2  0
  7 12  1  0
  8  9  1  0
  9 10  2  0
 10 11  1  0
M  END
>  <Gold.Gold.Protein.RotatedWaterAtoms>  (275) 


>  <Gold.Id.Protein>  (275) 


>  <Gold.PLP.Chemscore.CHOScore>  (275) 
0.0000

>  <Gold.PLP.Chemscore.Hbond>  (275) 
0.4160

>  <Gold.PLP.Chemscore.Internal.Correction>  (275) 
0.0004

>  <Gold.PLP.Chemscore.Metal>  (275) 
0.0000

>  <Gold.PLP.Fitness>  (275) 
48.9046

>  <Gold.PLP.PLP>  (275) 
-47.6744

>  <Gold.PLP.ligand.clash>  (275) 
0.0000

>  <Gold.PLP.ligand.torsion>  (275) 
0.0091

>  <Gold.PLP.part.buried>  (275) 
-7.3578

>  <Gold.PLP.part.hbond>  (275) 
-0.5127

>  <Gold.PLP.part.metal>  (275) 
0.0000

>  <Gold.PLP.part.nonpolar>  (275) 
-40.3098

>  <Gold.PLP.part.repulsive>  (275) 
0.1684

>  <Gold.Protein.RotatedAtoms>  (275) 


>  <Gold.Protein.RotatedTorsions>  (275) 


>  <Gold.Protein.RotatedWaterAtoms>  (275) 


>  <Gold.Version>  (275) 
5.3.0

>  <PLP.Chemscore.CHOScore>  (275) 


>  <PLP.Chemscore.Hbond>  (275) 


>  <PLP.Chemscore.Internal.Correction>  (275) 


>  <PLP.Chemscore.Metal>  (275) 


>  <PLP.Fitness>  (275) 


>  <PLP.PLP>  (275) 


>  <PLP.ligand.clash>  (275) 


>  <PLP.ligand.torsion>  (275) 


>  <PLP.part.buried>  (275) 


>  <PLP.part.hbond>  (275) 


>  <PLP.part.metal>  (275) 


>  <PLP.part.nonpolar>  (275) 


>  <PLP.part.repulsive>  (275) 


>  <RMSD>  (275) 
0.30972197429

>  <Torsion>  (275) 
172.929186758

>  <TorsionO>  (275) 
24.4968065243

>  <TorsionR>  (275) 
162.574006718

>  <Version>  (275) 


>  <product>  (275) 
13|Compound_8|Compounds_3D_F|sdf|4|dock3|1

>  <rmsd>  (275) 
-1

$$$$
110|565385_49|Aromatic_carboxylic_acids_F|sdf|29|dock1|1
     RDKit          3D

 13 13  0  0  0  0  0  0  0  0999 V2000
  -10.1118  -17.9021   11.6320 C   0  0  0  0  0  0  0  0  0  0  0  0
   -9.7537  -16.5043   11.6546 N   0  0  0  0  0  0  0  0  0  0  0  0
   -8.4330  -16.1187   11.7930 C   0  0  0  0  0  0  0  0  0  0  0  0
   -7.5159  -16.9298   11.9008 O   0  0  0  0  0  0  0  0  0  0  0  0
   -8.1234  -14.6552   11.8105 C   0  0  0  0  0  0  0  0  0  0  0  0
   -9.0636  -13.6551   11.5375 C   0  0  0  0  0  0  0  0  0  0  0  0
   -8.6966  -12.3009   11.5726 C   0  0  0  0  0  0  0  0  0  0  0  0
   -7.3879  -11.9195   11.8809 C   0  0  0  0  0  0  0  0  0  0  0  0
   -6.4486  -12.9235   12.1551 C   0  0  0  0  0  0  0  0  0  0  0  0
   -6.8098  -14.2750   12.1207 C   0  0  0  0  0  0  0  0  0  0  0  0
   -4.6444  -12.5025   12.5849 Br  0  0  0  0  0  0  0  0  0  0  0  0
   -6.9476  -10.6242   11.9372 O   0  0  0  0  0  0  0  0  0  0  0  0
   -7.9020   -9.5910   11.7256 C   0  0  0  0  0  0  0  0  0  0  0  0
  1  2  1  0
  2  3  1  0
  3  4  2  0
  3  5  1  0
  5  6  2  0
  5 10  1  0
  6  7  1  0
  7  8  2  0
  8  9  1  0
  8 12  1  0
  9 10  2  0
  9 11  1  0
 12 13  1  0
M  END
>  <Gold.Gold.Protein.RotatedWaterAtoms>  (276) 


>  <Gold.Id.Protein>  (276) 


>  <Gold.PLP.Chemscore.CHOScore>  (276) 
0.0000

>  <Gold.PLP.Chemscore.Hbond>  (276) 
1.0000

>  <Gold.PLP.Chemscore.Internal.Correction>  (276) 
0.0000

>  <Gold.PLP.Chemscore.Metal>  (276) 
0.0000

>  <Gold.PLP.Fitness>  (276) 
43.9775

>  <Gold.PLP.PLP>  (276) 
-41.0517

>  <Gold.PLP.ligand.clash>  (276) 
0.0000

>  <Gold.PLP.ligand.torsion>  (276) 
0.0371

>  <Gold.PLP.part.buried>  (276) 
-3.7367

>  <Gold.PLP.part.hbond>  (276) 
-1.0000

>  <Gold.PLP.part.metal>  (276) 
0.0000

>  <Gold.PLP.part.nonpolar>  (276) 
-36.7483

>  <Gold.PLP.part.repulsive>  (276) 
0.4054

>  <Gold.Protein.RotatedAtoms>  (276) 


>  <Gold.Protein.RotatedTorsions>  (276) 


>  <Gold.Protein.RotatedWaterAtoms>  (276) 


>  <Gold.Version>  (276) 
5.3.0

>  <PLP.Chemscore.CHOScore>  (276) 


>  <PLP.Chemscore.Hbond>  (276) 


>  <PLP.Chemscore.Internal.Correction>  (276) 


>  <PLP.Chemscore.Metal>  (276) 


>  <PLP.Fitness>  (276) 


>  <PLP.PLP>  (276) 


>  <PLP.ligand.clash>  (276) 


>  <PLP.ligand.torsion>  (276) 


>  <PLP.part.buried>  (276) 


>  <PLP.part.hbond>  (276) 


>  <PLP.part.metal>  (276) 


>  <PLP.part.nonpolar>  (276) 


>  <PLP.part.repulsive>  (276) 


>  <RMSD>  (276) 
0.319376411377

>  <Torsion>  (276) 
169.460450784

>  <TorsionO>  (276) 
9.7963905484

>  <TorsionR>  (276) 
179.256841332

>  <Version>  (276) 


>  <product>  (276) 
13|Compound_8|Compounds_3D_F|sdf|4|dock3|1

>  <rmsd>  (276) 
-1

$$$$
128|137677_56|Aromatic_carboxylic_acids_F|sdf|33|dock1|1
     RDKit          3D

 11 11  0  0  0  0  0  0  0  0999 V2000
   -8.6116  -16.1544   11.8887 C   0  0  0  0  0  0  0  0  0  0  0  0
   -7.9978  -14.8484   11.9215 N   0  0  0  0  0  0  0  0  0  0  0  0
   -8.7778  -13.7008   11.8756 C   0  0  0  0  0  0  0  0  0  0  0  0
  -10.0002  -13.7896   11.8139 O   0  0  0  0  0  0  0  0  0  0  0  0
   -8.0808  -12.3609   11.9017 C   0  0  0  0  0  0  0  0  0  0  0  0
   -8.7916  -11.1851   11.5813 C   0  0  0  0  0  0  0  0  0  0  0  0
   -8.1781   -9.9267   11.5989 C   0  0  0  0  0  0  0  0  0  0  0  0
   -6.8391   -9.8089   11.9369 C   0  0  0  0  0  0  0  0  0  0  0  0
   -6.1124  -10.9502   12.2575 C   0  0  0  0  0  0  0  0  0  0  0  0
   -6.7171  -12.2196   12.2428 C   0  0  0  0  0  0  0  0  0  0  0  0
   -5.5419  -13.6455   12.7121 Br  0  0  0  0  0  0  0  0  0  0  0  0
  1  2  1  0
  2  3  1  0
  3  4  2  0
  3  5  1  0
  5  6  2  0
  5 10  1  0
  6  7  1  0
  7  8  2  0
  8  9  1  0
  9 10  2  0
 10 11  1  0
M  END
>  <Gold.Gold.Protein.RotatedWaterAtoms>  (277) 


>  <Gold.Id.Protein>  (277) 


>  <Gold.PLP.Chemscore.CHOScore>  (277) 
0.0000

>  <Gold.PLP.Chemscore.Hbond>  (277) 
1.0000

>  <Gold.PLP.Chemscore.Internal.Correction>  (277) 
0.0000

>  <Gold.PLP.Chemscore.Metal>  (277) 
0.0000

>  <Gold.PLP.Fitness>  (277) 
45.2899

>  <Gold.PLP.PLP>  (277) 
-42.4444

>  <Gold.PLP.ligand.clash>  (277) 
0.0000

>  <Gold.PLP.ligand.torsion>  (277) 
0.0772

>  <Gold.PLP.part.buried>  (277) 
-6.4690

>  <Gold.PLP.part.hbond>  (277) 
-0.6863

>  <Gold.PLP.part.metal>  (277) 
0.0000

>  <Gold.PLP.part.nonpolar>  (277) 
-34.8280

>  <Gold.PLP.part.repulsive>  (277) 
0.1963

>  <Gold.Protein.RotatedAtoms>  (277) 


>  <Gold.Protein.RotatedTorsions>  (277) 


>  <Gold.Protein.RotatedWaterAtoms>  (277) 


>  <Gold.Version>  (277) 
5.3.0

>  <PLP.Chemscore.CHOScore>  (277) 


>  <PLP.Chemscore.Hbond>  (277) 


>  <PLP.Chemscore.Internal.Correction>  (277) 


>  <PLP.Chemscore.Metal>  (277) 


>  <PLP.Fitness>  (277) 


>  <PLP.PLP>  (277) 


>  <PLP.ligand.clash>  (277) 


>  <PLP.ligand.torsion>  (277) 


>  <PLP.part.buried>  (277) 


>  <PLP.part.hbond>  (277) 


>  <PLP.part.metal>  (277) 


>  <PLP.part.nonpolar>  (277) 


>  <PLP.part.repulsive>  (277) 


>  <RMSD>  (277) 
0.428070490903

>  <Torsion>  (277) 
152.444048788

>  <TorsionO>  (277) 
39.0580871276

>  <TorsionR>  (277) 
168.497864085

>  <Version>  (277) 


>  <product>  (277) 
13|Compound_8|Compounds_3D_F|sdf|4|dock3|1

>  <rmsd>  (277) 
-1

$$$$
974|750794_1404|Aromatic_primary_amines_F|sdf|194|dock3|1
     RDKit          3D

 14 14  0  0  0  0  0  0  0  0999 V2000
  -13.6355  -18.1936    9.4145 C   0  0  0  0  0  0  0  0  0  0  0  0
  -13.2544  -19.4497   10.1732 C   0  0  0  0  0  0  0  0  0  0  0  0
  -11.8731  -19.3506   10.5383 O   0  0  0  0  0  0  0  0  0  0  0  0
  -11.6148  -18.5085   11.5823 C   0  0  0  0  0  0  0  0  0  0  0  0
  -12.3947  -18.2810   12.5004 O   0  0  0  0  0  0  0  0  0  0  0  0
  -10.3031  -17.8985   11.4902 C   0  0  0  0  0  0  0  0  0  0  0  0
   -9.1673  -18.4974   10.9931 C   0  0  0  0  0  0  0  0  0  0  0  0
   -8.1448  -17.6055   11.0758 O   0  0  0  0  0  0  0  0  0  0  0  0
   -8.7110  -16.4917   11.6237 C   0  0  0  0  0  0  0  0  0  0  0  0
   -9.9933  -16.6110   11.8915 N   0  0  0  0  0  0  0  0  0  0  0  0
   -7.9611  -15.3718   11.8549 N   0  0  0  0  0  0  0  0  0  0  0  0
   -8.5046  -14.1249   12.0676 C   0  0  0  0  0  0  0  0  0  0  0  0
   -9.6950  -13.8313   12.1035 O   0  0  0  0  0  0  0  0  0  0  0  0
   -7.4448  -13.0785   12.3021 C   0  0  0  0  0  0  0  0  0  0  0  0
  1  2  1  0
  2  3  1  0
  3  4  1  0
  4  5  2  0
  4  6  1  0
  6  7  2  0
  6 10  1  0
  7  8  1  0
  8  9  1  0
  9 10  2  0
  9 11  1  0
 11 12  1  0
 12 13  2  0
 12 14  1  0
M  END
>  <Gold.Gold.Protein.RotatedWaterAtoms>  (278) 


>  <Gold.Id.Protein>  (278) 


>  <Gold.PLP.Chemscore.CHOScore>  (278) 
0.0000

>  <Gold.PLP.Chemscore.Hbond>  (278) 
2.0000

>  <Gold.PLP.Chemscore.Internal.Correction>  (278) 
0.0053

>  <Gold.PLP.Chemscore.Metal>  (278) 
0.0000

>  <Gold.PLP.Fitness>  (278) 
36.8047

>  <Gold.PLP.PLP>  (278) 
-32.7996

>  <Gold.PLP.ligand.clash>  (278) 
0.0000

>  <Gold.PLP.ligand.torsion>  (278) 
1.0001

>  <Gold.PLP.part.buried>  (278) 
-6.5206

>  <Gold.PLP.part.hbond>  (278) 
-2.9156

>  <Gold.PLP.part.metal>  (278) 
0.0000

>  <Gold.PLP.part.nonpolar>  (278) 
-23.4080

>  <Gold.PLP.part.repulsive>  (278) 
0.3100

>  <Gold.Protein.RotatedAtoms>  (278) 


>  <Gold.Protein.RotatedTorsions>  (278) 


>  <Gold.Protein.RotatedWaterAtoms>  (278) 


>  <Gold.Version>  (278) 
5.3.0

>  <PLP.Chemscore.CHOScore>  (278) 


>  <PLP.Chemscore.Hbond>  (278) 


>  <PLP.Chemscore.Internal.Correction>  (278) 


>  <PLP.Chemscore.Metal>  (278) 


>  <PLP.Fitness>  (278) 


>  <PLP.PLP>  (278) 


>  <PLP.ligand.clash>  (278) 


>  <PLP.ligand.torsion>  (278) 


>  <PLP.part.buried>  (278) 


>  <PLP.part.hbond>  (278) 


>  <PLP.part.metal>  (278) 


>  <PLP.part.nonpolar>  (278) 


>  <PLP.part.repulsive>  (278) 


>  <RMSD>  (278) 
0.499949349045

>  <Torsion>  (278) 
159.973716791

>  <TorsionO>  (278) 
19.1052109979

>  <TorsionR>  (278) 
179.078927789

>  <Version>  (278) 


>  <product>  (278) 
13|Compound_8|Compounds_3D_F|sdf|4|dock3|1

>  <rmsd>  (278) 
-1

$$$$
1884|M3006_1781|Aromatic_primary_amines_F|sdf|361|dock3|1
     RDKit          3D

 31 34  0  0  0  0  0  0  0  0999 V2000
  -14.4210  -19.8971    8.7934 C   0  0  0  0  0  0  0  0  0  0  0  0
  -13.9762  -19.4927   10.1894 C   0  0  0  0  0  0  0  0  0  0  0  0
  -14.1356  -20.6409   11.1817 C   0  0  0  0  0  0  0  0  0  0  0  0
  -13.5197  -20.3070   12.5189 C   0  0  0  0  0  0  0  0  0  0  0  0
  -12.9307  -19.2724   12.7954 O   0  0  0  0  0  0  0  0  0  0  0  0
  -13.7110  -21.3451   13.3845 O   0  0  0  0  0  0  0  0  0  0  0  0
  -12.9425  -21.2698   14.5900 C   0  0  0  0  0  0  0  0  0  0  0  0
  -12.8849  -22.6189   15.2889 C   0  0  0  0  0  0  0  0  0  0  0  0
  -11.6552  -22.4172   16.1494 C   0  0  0  0  0  0  0  0  0  0  0  0
  -11.2420  -23.7410   16.7624 C   0  0  0  0  0  0  0  0  0  0  0  0
  -12.3024  -24.2223   17.5862 O   0  0  0  0  0  0  0  0  0  0  0  0
  -13.7888  -24.3384   16.9603 P   0  0  0  0  0  0  0  0  0  0  0  0
  -14.8775  -24.6795   17.9243 O   0  0  0  0  0  0  0  0  0  0  0  0
  -13.9839  -22.9641   16.1174 O   0  0  0  0  0  0  0  0  0  0  0  0
  -13.5991  -25.4435   15.8075 O   0  0  0  0  0  0  0  0  0  0  0  0
  -10.6922  -21.8161   15.2889 O   0  0  0  0  0  0  0  0  0  0  0  0
  -11.4338  -20.9664   14.3653 C   0  0  0  0  0  0  0  0  0  0  0  0
  -10.9052  -21.2017   13.0342 N   0  0  0  0  0  0  0  0  0  0  0  0
  -10.7814  -22.4114   12.4013 C   0  0  0  0  0  0  0  0  0  0  0  0
  -10.2640  -22.2918   11.1953 N   0  0  0  0  0  0  0  0  0  0  0  0
  -10.0274  -20.9476   11.0424 C   0  0  0  0  0  0  0  0  0  0  0  0
  -10.4203  -20.2487   12.1733 C   0  0  0  0  0  0  0  0  0  0  0  0
  -10.3338  -18.9216   12.3641 N   0  0  0  0  0  0  0  0  0  0  0  0
   -9.8057  -18.2730   11.3024 C   0  0  0  0  0  0  0  0  0  0  0  0
   -9.3808  -18.8370   10.1545 N   0  0  0  0  0  0  0  0  0  0  0  0
   -9.4895  -20.1691   10.0244 C   0  0  0  0  0  0  0  0  0  0  0  0
   -9.0330  -20.6622    8.8349 O   0  0  0  0  0  0  0  0  0  0  0  0
   -9.7222  -16.8901   11.4793 N   0  0  0  0  0  0  0  0  0  0  0  0
   -8.5796  -16.1798   11.7761 C   0  0  0  0  0  0  0  0  0  0  0  0
   -7.4445  -16.6221   11.9131 O   0  0  0  0  0  0  0  0  0  0  0  0
   -8.8524  -14.7024   11.8973 C   0  0  0  0  0  0  0  0  0  0  0  0
  1  2  1  0
  2  3  1  0
  3  4  1  0
  4  5  2  0
  4  6  1  0
  6  7  1  0
  7  8  1  0
  7 17  1  0
  8  9  1  0
  8 14  1  0
  9 10  1  0
  9 16  1  0
 10 11  1  0
 11 12  1  0
 12 13  2  0
 12 14  1  0
 12 15  1  0
 16 17  1  0
 17 18  1  0
 18 19  1  0
 18 22  1  0
 19 20  2  0
 20 21  1  0
 21 22  2  0
 21 26  1  0
 22 23  1  0
 23 24  2  0
 24 25  1  0
 24 28  1  0
 25 26  2  0
 26 27  1  0
 28 29  1  0
 29 30  2  0
 29 31  1  0
M  END
>  <Gold.Gold.Protein.RotatedWaterAtoms>  (279) 


>  <Gold.Id.Protein>  (279) 


>  <Gold.PLP.Chemscore.CHOScore>  (279) 
0.0000

>  <Gold.PLP.Chemscore.Hbond>  (279) 
1.2080

>  <Gold.PLP.Chemscore.Internal.Correction>  (279) 
0.1232

>  <Gold.PLP.Chemscore.Metal>  (279) 
0.0000

>  <Gold.PLP.Fitness>  (279) 
47.7145

>  <Gold.PLP.PLP>  (279) 
-46.0218

>  <Gold.PLP.ligand.clash>  (279) 
0.0000

>  <Gold.PLP.ligand.torsion>  (279) 
1.0272

>  <Gold.PLP.part.buried>  (279) 
-2.2958

>  <Gold.PLP.part.hbond>  (279) 
-4.0214

>  <Gold.PLP.part.metal>  (279) 
0.0000

>  <Gold.PLP.part.nonpolar>  (279) 
-41.4699

>  <Gold.PLP.part.repulsive>  (279) 
0.9524

>  <Gold.Protein.RotatedAtoms>  (279) 


>  <Gold.Protein.RotatedTorsions>  (279) 


>  <Gold.Protein.RotatedWaterAtoms>  (279) 


>  <Gold.Version>  (279) 
5.3.0

>  <PLP.Chemscore.CHOScore>  (279) 


>  <PLP.Chemscore.Hbond>  (279) 


>  <PLP.Chemscore.Internal.Correction>  (279) 


>  <PLP.Chemscore.Metal>  (279) 


>  <PLP.Fitness>  (279) 


>  <PLP.PLP>  (279) 


>  <PLP.ligand.clash>  (279) 


>  <PLP.ligand.torsion>  (279) 


>  <PLP.part.buried>  (279) 


>  <PLP.part.hbond>  (279) 


>  <PLP.part.metal>  (279) 


>  <PLP.part.nonpolar>  (279) 


>  <PLP.part.repulsive>  (279) 


>  <RMSD>  (279) 
0.291955871297

>  <Torsion>  (279) 
171.923704933

>  <TorsionO>  (279) 
6.03609353985

>  <TorsionR>  (279) 
177.959798473

>  <Version>  (279) 


>  <product>  (279) 
13|Compound_8|Compounds_3D_F|sdf|4|dock3|1

>  <rmsd>  (279) 
-1

$$$$
193|32168_281|Aromatic_primary_amines_F|sdf|39|dock6|1
     RDKit          3D

 23 25  0  0  0  0  0  0  0  0999 V2000
   -7.8439  -12.1461   11.8919 C   0  0  0  0  0  0  0  0  0  0  0  0
   -8.5691  -13.4472   11.6781 C   0  0  0  0  0  0  0  0  0  0  0  0
   -9.7886  -13.4981   11.5208 O   0  0  0  0  0  0  0  0  0  0  0  0
   -7.7264  -14.5390   11.7020 N   0  0  0  0  0  0  0  0  0  0  0  0
   -8.1889  -15.8197   11.5323 C   0  0  0  0  0  0  0  0  0  0  0  0
   -9.4747  -16.2039   11.8163 N   0  0  0  0  0  0  0  0  0  0  0  0
   -9.5964  -17.5375   11.5379 C   0  0  0  0  0  0  0  0  0  0  0  0
  -10.6643  -18.4283   11.6415 C   0  0  0  0  0  0  0  0  0  0  0  0
  -10.4051  -19.7586   11.2778 C   0  0  0  0  0  0  0  0  0  0  0  0
   -9.1530  -20.1507   10.7795 C   0  0  0  0  0  0  0  0  0  0  0  0
   -8.1017  -19.2294   10.6839 C   0  0  0  0  0  0  0  0  0  0  0  0
   -8.3349  -17.9032   11.0783 C   0  0  0  0  0  0  0  0  0  0  0  0
   -7.4773  -16.8281   11.0838 N   0  0  0  0  0  0  0  0  0  0  0  0
   -8.8530  -21.7658   10.2429 Cl  0  0  0  0  0  0  0  0  0  0  0  0
  -11.4669  -20.6323   11.3734 O   0  0  0  0  0  0  0  0  0  0  0  0
  -12.5262  -20.4408   10.5053 C   0  0  0  0  0  0  0  0  0  0  0  0
  -13.3188  -19.2846   10.5304 C   0  0  0  0  0  0  0  0  0  0  0  0
  -14.3665  -19.1344    9.6224 C   0  0  0  0  0  0  0  0  0  0  0  0
  -14.6219  -20.1279    8.6796 C   0  0  0  0  0  0  0  0  0  0  0  0
  -13.8238  -21.2756    8.6345 C   0  0  0  0  0  0  0  0  0  0  0  0
  -12.7674  -21.4342    9.5416 C   0  0  0  0  0  0  0  0  0  0  0  0
  -11.7588  -22.8458    9.4996 Cl  0  0  0  0  0  0  0  0  0  0  0  0
  -14.1988  -22.4584    7.4296 Cl  0  0  0  0  0  0  0  0  0  0  0  0
  1  2  1  0
  2  3  2  0
  2  4  1  0
  4  5  1  0
  5  6  1  0
  5 13  2  0
  6  7  1  0
  7  8  2  0
  7 12  1  0
  8  9  1  0
  9 10  2  0
  9 15  1  0
 10 11  1  0
 10 14  1  0
 11 12  2  0
 12 13  1  0
 15 16  1  0
 16 17  2  0
 16 21  1  0
 17 18  1  0
 18 19  2  0
 19 20  1  0
 20 21  2  0
 20 23  1  0
 21 22  1  0
M  END
>  <Gold.Gold.Protein.RotatedWaterAtoms>  (280) 


>  <Gold.Id.Protein>  (280) 


>  <Gold.PLP.Chemscore.CHOScore>  (280) 
0.0000

>  <Gold.PLP.Chemscore.Hbond>  (280) 
1.0000

>  <Gold.PLP.Chemscore.Internal.Correction>  (280) 
0.0086

>  <Gold.PLP.Chemscore.Metal>  (280) 
0.0000

>  <Gold.PLP.Fitness>  (280) 
50.7139

>  <Gold.PLP.PLP>  (280) 
-48.1706

>  <Gold.PLP.ligand.clash>  (280) 
0.0000

>  <Gold.PLP.ligand.torsion>  (280) 
0.2327

>  <Gold.PLP.part.buried>  (280) 
-6.5205

>  <Gold.PLP.part.hbond>  (280) 
-2.0000

>  <Gold.PLP.part.metal>  (280) 
0.0000

>  <Gold.PLP.part.nonpolar>  (280) 
-39.3857

>  <Gold.PLP.part.repulsive>  (280) 
0.3298

>  <Gold.Protein.RotatedAtoms>  (280) 


>  <Gold.Protein.RotatedTorsions>  (280) 


>  <Gold.Protein.RotatedWaterAtoms>  (280) 


>  <Gold.Version>  (280) 
5.3.0

>  <PLP.Chemscore.CHOScore>  (280) 


>  <PLP.Chemscore.Hbond>  (280) 


>  <PLP.Chemscore.Internal.Correction>  (280) 


>  <PLP.Chemscore.Metal>  (280) 


>  <PLP.Fitness>  (280) 


>  <PLP.PLP>  (280) 


>  <PLP.ligand.clash>  (280) 


>  <PLP.ligand.torsion>  (280) 


>  <PLP.part.buried>  (280) 


>  <PLP.part.hbond>  (280) 


>  <PLP.part.metal>  (280) 


>  <PLP.part.nonpolar>  (280) 


>  <PLP.part.repulsive>  (280) 


>  <RMSD>  (280) 
0.439733510035

>  <Torsion>  (280) 
177.672185574

>  <TorsionO>  (280) 
4.31728583372

>  <TorsionR>  (280) 
173.35489974

>  <Version>  (280) 


>  <product>  (280) 
13|Compound_8|Compounds_3D_F|sdf|4|dock3|1

>  <rmsd>  (280) 
-1

$$$$
54|Compound_24|Compounds_3D_F|sdf|10|dock1|1
     RDKit          3D

 10  9  0  0  0  0  0  0  0  0999 V2000
   -4.6283  -12.4353   13.1025 O   0  0  0  0  0  0  0  0  0  0  0  0
   -5.8541  -12.1342   12.6484 C   0  0  0  0  0  0  0  0  0  0  0  0
   -6.1471  -10.9852   12.4134 O   0  0  0  0  0  0  0  0  0  0  0  0
   -6.8676  -13.2286   12.4317 C   0  0  0  0  0  0  0  0  0  0  0  0
   -8.2464  -12.6079   12.1963 C   0  0  0  0  0  0  0  0  0  0  0  0
   -6.4677  -14.0607   11.2117 C   0  0  0  0  0  0  0  0  0  0  0  0
   -5.2338  -14.7952   11.5044 N   0  0  0  0  0  0  0  0  0  0  0  0
   -5.2858  -15.9483   12.2008 C   0  0  0  0  0  0  0  0  0  0  0  0
   -6.3529  -16.3772   12.5843 O   0  0  0  0  0  0  0  0  0  0  0  0
   -3.9640  -16.7350   12.5144 B   0  0  0  0  0  0  0  0  0  0  0  0
  1  2  1  0
  2  3  2  0
  2  4  1  0
  4  5  1  0
  4  6  1  0
  6  7  1  0
  7  8  1  0
  8  9  2  0
  8 10  1  0
M  END
>  <Gold.Gold.Protein.RotatedWaterAtoms>  (281) 


>  <Gold.Id.Protein>  (281) 


>  <Gold.PLP.Chemscore.CHOScore>  (281) 
0.0000

>  <Gold.PLP.Chemscore.Hbond>  (281) 
2.0000

>  <Gold.PLP.Chemscore.Internal.Correction>  (281) 
0.0014

>  <Gold.PLP.Chemscore.Metal>  (281) 
0.0000

>  <Gold.PLP.Fitness>  (281) 
35.7675

>  <Gold.PLP.PLP>  (281) 
-30.6022

>  <Gold.PLP.ligand.clash>  (281) 
0.0000

>  <Gold.PLP.ligand.torsion>  (281) 
0.4180

>  <Gold.PLP.part.buried>  (281) 
-6.5574

>  <Gold.PLP.part.hbond>  (281) 
-3.9934

>  <Gold.PLP.part.metal>  (281) 
0.0000

>  <Gold.PLP.part.nonpolar>  (281) 
-20.6902

>  <Gold.PLP.part.repulsive>  (281) 
0.4425

>  <Gold.Protein.RotatedAtoms>  (281) 


>  <Gold.Protein.RotatedTorsions>  (281) 


>  <Gold.Protein.RotatedWaterAtoms>  (281) 


>  <Gold.Version>  (281) 
5.3.0

>  <PLP.Chemscore.CHOScore>  (281) 


>  <PLP.Chemscore.Hbond>  (281) 


>  <PLP.Chemscore.Internal.Correction>  (281) 


>  <PLP.Chemscore.Metal>  (281) 


>  <PLP.Fitness>  (281) 


>  <PLP.PLP>  (281) 


>  <PLP.ligand.clash>  (281) 


>  <PLP.ligand.torsion>  (281) 


>  <PLP.part.buried>  (281) 


>  <PLP.part.hbond>  (281) 


>  <PLP.part.metal>  (281) 


>  <PLP.part.nonpolar>  (281) 


>  <PLP.part.repulsive>  (281) 


>  <Version>  (281) 


$$$$
94|664022_40|Aromatic_carboxylic_acids_F|sdf|24|dock1|1
     RDKit          3D

 12 12  0  0  0  0  0  0  0  0999 V2000
   -8.2596  -17.1212   11.4595 C   0  0  0  0  0  0  0  0  0  0  0  0
   -7.6366  -15.8367   11.6688 N   0  0  0  0  0  0  0  0  0  0  0  0
   -8.3409  -14.6553   11.5719 C   0  0  0  0  0  0  0  0  0  0  0  0
   -9.5296  -14.5547   11.2978 O   0  0  0  0  0  0  0  0  0  0  0  0
   -7.5420  -13.4431   11.8503 C   0  0  0  0  0  0  0  0  0  0  0  0
   -8.1627  -12.1983   11.6738 C   0  0  0  0  0  0  0  0  0  0  0  0
   -7.4390  -11.0301   11.9055 C   0  0  0  0  0  0  0  0  0  0  0  0
   -6.1069  -11.0910   12.3103 C   0  0  0  0  0  0  0  0  0  0  0  0
   -5.4897  -12.3324   12.4853 C   0  0  0  0  0  0  0  0  0  0  0  0
   -6.2035  -13.5136   12.2549 C   0  0  0  0  0  0  0  0  0  0  0  0
   -5.3062  -15.1564   12.5638 Br  0  0  0  0  0  0  0  0  0  0  0  0
   -8.1960   -9.5005   11.6887 Cl  0  0  0  0  0  0  0  0  0  0  0  0
  1  2  1  0
  2  3  1  0
  3  4  2  0
  3  5  1  0
  5  6  2  0
  5 10  1  0
  6  7  1  0
  7  8  2  0
  7 12  1  0
  8  9  1  0
  9 10  2  0
 10 11  1  0
M  END
>  <Gold.Gold.Protein.RotatedWaterAtoms>  (282) 


>  <Gold.Id.Protein>  (282) 


>  <Gold.PLP.Chemscore.CHOScore>  (282) 
0.0000

>  <Gold.PLP.Chemscore.Hbond>  (282) 
0.4160

>  <Gold.PLP.Chemscore.Internal.Correction>  (282) 
0.0004

>  <Gold.PLP.Chemscore.Metal>  (282) 
0.0000

>  <Gold.PLP.Fitness>  (282) 
48.9046

>  <Gold.PLP.PLP>  (282) 
-47.6744

>  <Gold.PLP.ligand.clash>  (282) 
0.0000

>  <Gold.PLP.ligand.torsion>  (282) 
0.0091

>  <Gold.PLP.part.buried>  (282) 
-7.3578

>  <Gold.PLP.part.hbond>  (282) 
-0.5127

>  <Gold.PLP.part.metal>  (282) 
0.0000

>  <Gold.PLP.part.nonpolar>  (282) 
-40.3098

>  <Gold.PLP.part.repulsive>  (282) 
0.1684

>  <Gold.Protein.RotatedAtoms>  (282) 


>  <Gold.Protein.RotatedTorsions>  (282) 


>  <Gold.Protein.RotatedWaterAtoms>  (282) 


>  <Gold.Version>  (282) 
5.3.0

>  <PLP.Chemscore.CHOScore>  (282) 


>  <PLP.Chemscore.Hbond>  (282) 


>  <PLP.Chemscore.Internal.Correction>  (282) 


>  <PLP.Chemscore.Metal>  (282) 


>  <PLP.Fitness>  (282) 


>  <PLP.PLP>  (282) 


>  <PLP.ligand.clash>  (282) 


>  <PLP.ligand.torsion>  (282) 


>  <PLP.part.buried>  (282) 


>  <PLP.part.hbond>  (282) 


>  <PLP.part.metal>  (282) 


>  <PLP.part.nonpolar>  (282) 


>  <PLP.part.repulsive>  (282) 


>  <RMSD>  (282) 
0.30972197429

>  <Torsion>  (282) 
172.929186758

>  <TorsionO>  (282) 
24.4968065243

>  <TorsionR>  (282) 
162.574006718

>  <Version>  (282) 


>  <product>  (282) 
54|Compound_24|Compounds_3D_F|sdf|10|dock1|1

>  <rmsd>  (282) 
-1

$$$$
110|565385_49|Aromatic_carboxylic_acids_F|sdf|29|dock1|1
     RDKit          3D

 13 13  0  0  0  0  0  0  0  0999 V2000
  -10.1118  -17.9021   11.6320 C   0  0  0  0  0  0  0  0  0  0  0  0
   -9.7537  -16.5043   11.6546 N   0  0  0  0  0  0  0  0  0  0  0  0
   -8.4330  -16.1187   11.7930 C   0  0  0  0  0  0  0  0  0  0  0  0
   -7.5159  -16.9298   11.9008 O   0  0  0  0  0  0  0  0  0  0  0  0
   -8.1234  -14.6552   11.8105 C   0  0  0  0  0  0  0  0  0  0  0  0
   -9.0636  -13.6551   11.5375 C   0  0  0  0  0  0  0  0  0  0  0  0
   -8.6966  -12.3009   11.5726 C   0  0  0  0  0  0  0  0  0  0  0  0
   -7.3879  -11.9195   11.8809 C   0  0  0  0  0  0  0  0  0  0  0  0
   -6.4486  -12.9235   12.1551 C   0  0  0  0  0  0  0  0  0  0  0  0
   -6.8098  -14.2750   12.1207 C   0  0  0  0  0  0  0  0  0  0  0  0
   -4.6444  -12.5025   12.5849 Br  0  0  0  0  0  0  0  0  0  0  0  0
   -6.9476  -10.6242   11.9372 O   0  0  0  0  0  0  0  0  0  0  0  0
   -7.9020   -9.5910   11.7256 C   0  0  0  0  0  0  0  0  0  0  0  0
  1  2  1  0
  2  3  1  0
  3  4  2  0
  3  5  1  0
  5  6  2  0
  5 10  1  0
  6  7  1  0
  7  8  2  0
  8  9  1  0
  8 12  1  0
  9 10  2  0
  9 11  1  0
 12 13  1  0
M  END
>  <Gold.Gold.Protein.RotatedWaterAtoms>  (283) 


>  <Gold.Id.Protein>  (283) 


>  <Gold.PLP.Chemscore.CHOScore>  (283) 
0.0000

>  <Gold.PLP.Chemscore.Hbond>  (283) 
1.0000

>  <Gold.PLP.Chemscore.Internal.Correction>  (283) 
0.0000

>  <Gold.PLP.Chemscore.Metal>  (283) 
0.0000

>  <Gold.PLP.Fitness>  (283) 
43.9775

>  <Gold.PLP.PLP>  (283) 
-41.0517

>  <Gold.PLP.ligand.clash>  (283) 
0.0000

>  <Gold.PLP.ligand.torsion>  (283) 
0.0371

>  <Gold.PLP.part.buried>  (283) 
-3.7367

>  <Gold.PLP.part.hbond>  (283) 
-1.0000

>  <Gold.PLP.part.metal>  (283) 
0.0000

>  <Gold.PLP.part.nonpolar>  (283) 
-36.7483

>  <Gold.PLP.part.repulsive>  (283) 
0.4054

>  <Gold.Protein.RotatedAtoms>  (283) 


>  <Gold.Protein.RotatedTorsions>  (283) 


>  <Gold.Protein.RotatedWaterAtoms>  (283) 


>  <Gold.Version>  (283) 
5.3.0

>  <PLP.Chemscore.CHOScore>  (283) 


>  <PLP.Chemscore.Hbond>  (283) 


>  <PLP.Chemscore.Internal.Correction>  (283) 


>  <PLP.Chemscore.Metal>  (283) 


>  <PLP.Fitness>  (283) 


>  <PLP.PLP>  (283) 


>  <PLP.ligand.clash>  (283) 


>  <PLP.ligand.torsion>  (283) 


>  <PLP.part.buried>  (283) 


>  <PLP.part.hbond>  (283) 


>  <PLP.part.metal>  (283) 


>  <PLP.part.nonpolar>  (283) 


>  <PLP.part.repulsive>  (283) 


>  <RMSD>  (283) 
0.319376411377

>  <Torsion>  (283) 
169.460450784

>  <TorsionO>  (283) 
9.7963905484

>  <TorsionR>  (283) 
179.256841332

>  <Version>  (283) 


>  <product>  (283) 
54|Compound_24|Compounds_3D_F|sdf|10|dock1|1

>  <rmsd>  (283) 
-1

$$$$
128|137677_56|Aromatic_carboxylic_acids_F|sdf|33|dock1|1
     RDKit          3D

 11 11  0  0  0  0  0  0  0  0999 V2000
   -8.6116  -16.1544   11.8887 C   0  0  0  0  0  0  0  0  0  0  0  0
   -7.9978  -14.8484   11.9215 N   0  0  0  0  0  0  0  0  0  0  0  0
   -8.7778  -13.7008   11.8756 C   0  0  0  0  0  0  0  0  0  0  0  0
  -10.0002  -13.7896   11.8139 O   0  0  0  0  0  0  0  0  0  0  0  0
   -8.0808  -12.3609   11.9017 C   0  0  0  0  0  0  0  0  0  0  0  0
   -8.7916  -11.1851   11.5813 C   0  0  0  0  0  0  0  0  0  0  0  0
   -8.1781   -9.9267   11.5989 C   0  0  0  0  0  0  0  0  0  0  0  0
   -6.8391   -9.8089   11.9369 C   0  0  0  0  0  0  0  0  0  0  0  0
   -6.1124  -10.9502   12.2575 C   0  0  0  0  0  0  0  0  0  0  0  0
   -6.7171  -12.2196   12.2428 C   0  0  0  0  0  0  0  0  0  0  0  0
   -5.5419  -13.6455   12.7121 Br  0  0  0  0  0  0  0  0  0  0  0  0
  1  2  1  0
  2  3  1  0
  3  4  2  0
  3  5  1  0
  5  6  2  0
  5 10  1  0
  6  7  1  0
  7  8  2  0
  8  9  1  0
  9 10  2  0
 10 11  1  0
M  END
>  <Gold.Gold.Protein.RotatedWaterAtoms>  (284) 


>  <Gold.Id.Protein>  (284) 


>  <Gold.PLP.Chemscore.CHOScore>  (284) 
0.0000

>  <Gold.PLP.Chemscore.Hbond>  (284) 
1.0000

>  <Gold.PLP.Chemscore.Internal.Correction>  (284) 
0.0000

>  <Gold.PLP.Chemscore.Metal>  (284) 
0.0000

>  <Gold.PLP.Fitness>  (284) 
45.2899

>  <Gold.PLP.PLP>  (284) 
-42.4444

>  <Gold.PLP.ligand.clash>  (284) 
0.0000

>  <Gold.PLP.ligand.torsion>  (284) 
0.0772

>  <Gold.PLP.part.buried>  (284) 
-6.4690

>  <Gold.PLP.part.hbond>  (284) 
-0.6863

>  <Gold.PLP.part.metal>  (284) 
0.0000

>  <Gold.PLP.part.nonpolar>  (284) 
-34.8280

>  <Gold.PLP.part.repulsive>  (284) 
0.1963

>  <Gold.Protein.RotatedAtoms>  (284) 


>  <Gold.Protein.RotatedTorsions>  (284) 


>  <Gold.Protein.RotatedWaterAtoms>  (284) 


>  <Gold.Version>  (284) 
5.3.0

>  <PLP.Chemscore.CHOScore>  (284) 


>  <PLP.Chemscore.Hbond>  (284) 


>  <PLP.Chemscore.Internal.Correction>  (284) 


>  <PLP.Chemscore.Metal>  (284) 


>  <PLP.Fitness>  (284) 


>  <PLP.PLP>  (284) 


>  <PLP.ligand.clash>  (284) 


>  <PLP.ligand.torsion>  (284) 


>  <PLP.part.buried>  (284) 


>  <PLP.part.hbond>  (284) 


>  <PLP.part.metal>  (284) 


>  <PLP.part.nonpolar>  (284) 


>  <PLP.part.repulsive>  (284) 


>  <RMSD>  (284) 
0.428070490903

>  <Torsion>  (284) 
152.444048788

>  <TorsionO>  (284) 
39.0580871276

>  <TorsionR>  (284) 
168.497864085

>  <Version>  (284) 


>  <product>  (284) 
54|Compound_24|Compounds_3D_F|sdf|10|dock1|1

>  <rmsd>  (284) 
-1

$$$$
974|750794_1404|Aromatic_primary_amines_F|sdf|194|dock3|1
     RDKit          3D

 14 14  0  0  0  0  0  0  0  0999 V2000
  -13.6355  -18.1936    9.4145 C   0  0  0  0  0  0  0  0  0  0  0  0
  -13.2544  -19.4497   10.1732 C   0  0  0  0  0  0  0  0  0  0  0  0
  -11.8731  -19.3506   10.5383 O   0  0  0  0  0  0  0  0  0  0  0  0
  -11.6148  -18.5085   11.5823 C   0  0  0  0  0  0  0  0  0  0  0  0
  -12.3947  -18.2810   12.5004 O   0  0  0  0  0  0  0  0  0  0  0  0
  -10.3031  -17.8985   11.4902 C   0  0  0  0  0  0  0  0  0  0  0  0
   -9.1673  -18.4974   10.9931 C   0  0  0  0  0  0  0  0  0  0  0  0
   -8.1448  -17.6055   11.0758 O   0  0  0  0  0  0  0  0  0  0  0  0
   -8.7110  -16.4917   11.6237 C   0  0  0  0  0  0  0  0  0  0  0  0
   -9.9933  -16.6110   11.8915 N   0  0  0  0  0  0  0  0  0  0  0  0
   -7.9611  -15.3718   11.8549 N   0  0  0  0  0  0  0  0  0  0  0  0
   -8.5046  -14.1249   12.0676 C   0  0  0  0  0  0  0  0  0  0  0  0
   -9.6950  -13.8313   12.1035 O   0  0  0  0  0  0  0  0  0  0  0  0
   -7.4448  -13.0785   12.3021 C   0  0  0  0  0  0  0  0  0  0  0  0
  1  2  1  0
  2  3  1  0
  3  4  1  0
  4  5  2  0
  4  6  1  0
  6  7  2  0
  6 10  1  0
  7  8  1  0
  8  9  1  0
  9 10  2  0
  9 11  1  0
 11 12  1  0
 12 13  2  0
 12 14  1  0
M  END
>  <Gold.Gold.Protein.RotatedWaterAtoms>  (285) 


>  <Gold.Id.Protein>  (285) 


>  <Gold.PLP.Chemscore.CHOScore>  (285) 
0.0000

>  <Gold.PLP.Chemscore.Hbond>  (285) 
2.0000

>  <Gold.PLP.Chemscore.Internal.Correction>  (285) 
0.0053

>  <Gold.PLP.Chemscore.Metal>  (285) 
0.0000

>  <Gold.PLP.Fitness>  (285) 
36.8047

>  <Gold.PLP.PLP>  (285) 
-32.7996

>  <Gold.PLP.ligand.clash>  (285) 
0.0000

>  <Gold.PLP.ligand.torsion>  (285) 
1.0001

>  <Gold.PLP.part.buried>  (285) 
-6.5206

>  <Gold.PLP.part.hbond>  (285) 
-2.9156

>  <Gold.PLP.part.metal>  (285) 
0.0000

>  <Gold.PLP.part.nonpolar>  (285) 
-23.4080

>  <Gold.PLP.part.repulsive>  (285) 
0.3100

>  <Gold.Protein.RotatedAtoms>  (285) 


>  <Gold.Protein.RotatedTorsions>  (285) 


>  <Gold.Protein.RotatedWaterAtoms>  (285) 


>  <Gold.Version>  (285) 
5.3.0

>  <PLP.Chemscore.CHOScore>  (285) 


>  <PLP.Chemscore.Hbond>  (285) 


>  <PLP.Chemscore.Internal.Correction>  (285) 


>  <PLP.Chemscore.Metal>  (285) 


>  <PLP.Fitness>  (285) 


>  <PLP.PLP>  (285) 


>  <PLP.ligand.clash>  (285) 


>  <PLP.ligand.torsion>  (285) 


>  <PLP.part.buried>  (285) 


>  <PLP.part.hbond>  (285) 


>  <PLP.part.metal>  (285) 


>  <PLP.part.nonpolar>  (285) 


>  <PLP.part.repulsive>  (285) 


>  <RMSD>  (285) 
0.499949349045

>  <Torsion>  (285) 
159.973716791

>  <TorsionO>  (285) 
19.1052109979

>  <TorsionR>  (285) 
179.078927789

>  <Version>  (285) 


>  <product>  (285) 
54|Compound_24|Compounds_3D_F|sdf|10|dock1|1

>  <rmsd>  (285) 
-1

$$$$
1884|M3006_1781|Aromatic_primary_amines_F|sdf|361|dock3|1
     RDKit          3D

 31 34  0  0  0  0  0  0  0  0999 V2000
  -14.4210  -19.8971    8.7934 C   0  0  0  0  0  0  0  0  0  0  0  0
  -13.9762  -19.4927   10.1894 C   0  0  0  0  0  0  0  0  0  0  0  0
  -14.1356  -20.6409   11.1817 C   0  0  0  0  0  0  0  0  0  0  0  0
  -13.5197  -20.3070   12.5189 C   0  0  0  0  0  0  0  0  0  0  0  0
  -12.9307  -19.2724   12.7954 O   0  0  0  0  0  0  0  0  0  0  0  0
  -13.7110  -21.3451   13.3845 O   0  0  0  0  0  0  0  0  0  0  0  0
  -12.9425  -21.2698   14.5900 C   0  0  0  0  0  0  0  0  0  0  0  0
  -12.8849  -22.6189   15.2889 C   0  0  0  0  0  0  0  0  0  0  0  0
  -11.6552  -22.4172   16.1494 C   0  0  0  0  0  0  0  0  0  0  0  0
  -11.2420  -23.7410   16.7624 C   0  0  0  0  0  0  0  0  0  0  0  0
  -12.3024  -24.2223   17.5862 O   0  0  0  0  0  0  0  0  0  0  0  0
  -13.7888  -24.3384   16.9603 P   0  0  0  0  0  0  0  0  0  0  0  0
  -14.8775  -24.6795   17.9243 O   0  0  0  0  0  0  0  0  0  0  0  0
  -13.9839  -22.9641   16.1174 O   0  0  0  0  0  0  0  0  0  0  0  0
  -13.5991  -25.4435   15.8075 O   0  0  0  0  0  0  0  0  0  0  0  0
  -10.6922  -21.8161   15.2889 O   0  0  0  0  0  0  0  0  0  0  0  0
  -11.4338  -20.9664   14.3653 C   0  0  0  0  0  0  0  0  0  0  0  0
  -10.9052  -21.2017   13.0342 N   0  0  0  0  0  0  0  0  0  0  0  0
  -10.7814  -22.4114   12.4013 C   0  0  0  0  0  0  0  0  0  0  0  0
  -10.2640  -22.2918   11.1953 N   0  0  0  0  0  0  0  0  0  0  0  0
  -10.0274  -20.9476   11.0424 C   0  0  0  0  0  0  0  0  0  0  0  0
  -10.4203  -20.2487   12.1733 C   0  0  0  0  0  0  0  0  0  0  0  0
  -10.3338  -18.9216   12.3641 N   0  0  0  0  0  0  0  0  0  0  0  0
   -9.8057  -18.2730   11.3024 C   0  0  0  0  0  0  0  0  0  0  0  0
   -9.3808  -18.8370   10.1545 N   0  0  0  0  0  0  0  0  0  0  0  0
   -9.4895  -20.1691   10.0244 C   0  0  0  0  0  0  0  0  0  0  0  0
   -9.0330  -20.6622    8.8349 O   0  0  0  0  0  0  0  0  0  0  0  0
   -9.7222  -16.8901   11.4793 N   0  0  0  0  0  0  0  0  0  0  0  0
   -8.5796  -16.1798   11.7761 C   0  0  0  0  0  0  0  0  0  0  0  0
   -7.4445  -16.6221   11.9131 O   0  0  0  0  0  0  0  0  0  0  0  0
   -8.8524  -14.7024   11.8973 C   0  0  0  0  0  0  0  0  0  0  0  0
  1  2  1  0
  2  3  1  0
  3  4  1  0
  4  5  2  0
  4  6  1  0
  6  7  1  0
  7  8  1  0
  7 17  1  0
  8  9  1  0
  8 14  1  0
  9 10  1  0
  9 16  1  0
 10 11  1  0
 11 12  1  0
 12 13  2  0
 12 14  1  0
 12 15  1  0
 16 17  1  0
 17 18  1  0
 18 19  1  0
 18 22  1  0
 19 20  2  0
 20 21  1  0
 21 22  2  0
 21 26  1  0
 22 23  1  0
 23 24  2  0
 24 25  1  0
 24 28  1  0
 25 26  2  0
 26 27  1  0
 28 29  1  0
 29 30  2  0
 29 31  1  0
M  END
>  <Gold.Gold.Protein.RotatedWaterAtoms>  (286) 


>  <Gold.Id.Protein>  (286) 


>  <Gold.PLP.Chemscore.CHOScore>  (286) 
0.0000

>  <Gold.PLP.Chemscore.Hbond>  (286) 
1.2080

>  <Gold.PLP.Chemscore.Internal.Correction>  (286) 
0.1232

>  <Gold.PLP.Chemscore.Metal>  (286) 
0.0000

>  <Gold.PLP.Fitness>  (286) 
47.7145

>  <Gold.PLP.PLP>  (286) 
-46.0218

>  <Gold.PLP.ligand.clash>  (286) 
0.0000

>  <Gold.PLP.ligand.torsion>  (286) 
1.0272

>  <Gold.PLP.part.buried>  (286) 
-2.2958

>  <Gold.PLP.part.hbond>  (286) 
-4.0214

>  <Gold.PLP.part.metal>  (286) 
0.0000

>  <Gold.PLP.part.nonpolar>  (286) 
-41.4699

>  <Gold.PLP.part.repulsive>  (286) 
0.9524

>  <Gold.Protein.RotatedAtoms>  (286) 


>  <Gold.Protein.RotatedTorsions>  (286) 


>  <Gold.Protein.RotatedWaterAtoms>  (286) 


>  <Gold.Version>  (286) 
5.3.0

>  <PLP.Chemscore.CHOScore>  (286) 


>  <PLP.Chemscore.Hbond>  (286) 


>  <PLP.Chemscore.Internal.Correction>  (286) 


>  <PLP.Chemscore.Metal>  (286) 


>  <PLP.Fitness>  (286) 


>  <PLP.PLP>  (286) 


>  <PLP.ligand.clash>  (286) 


>  <PLP.ligand.torsion>  (286) 


>  <PLP.part.buried>  (286) 


>  <PLP.part.hbond>  (286) 


>  <PLP.part.metal>  (286) 


>  <PLP.part.nonpolar>  (286) 


>  <PLP.part.repulsive>  (286) 


>  <RMSD>  (286) 
0.291955871297

>  <Torsion>  (286) 
171.923704933

>  <TorsionO>  (286) 
6.03609353985

>  <TorsionR>  (286) 
177.959798473

>  <Version>  (286) 


>  <product>  (286) 
54|Compound_24|Compounds_3D_F|sdf|10|dock1|1

>  <rmsd>  (286) 
-1

$$$$
193|32168_281|Aromatic_primary_amines_F|sdf|39|dock6|1
     RDKit          3D

 23 25  0  0  0  0  0  0  0  0999 V2000
   -7.8439  -12.1461   11.8919 C   0  0  0  0  0  0  0  0  0  0  0  0
   -8.5691  -13.4472   11.6781 C   0  0  0  0  0  0  0  0  0  0  0  0
   -9.7886  -13.4981   11.5208 O   0  0  0  0  0  0  0  0  0  0  0  0
   -7.7264  -14.5390   11.7020 N   0  0  0  0  0  0  0  0  0  0  0  0
   -8.1889  -15.8197   11.5323 C   0  0  0  0  0  0  0  0  0  0  0  0
   -9.4747  -16.2039   11.8163 N   0  0  0  0  0  0  0  0  0  0  0  0
   -9.5964  -17.5375   11.5379 C   0  0  0  0  0  0  0  0  0  0  0  0
  -10.6643  -18.4283   11.6415 C   0  0  0  0  0  0  0  0  0  0  0  0
  -10.4051  -19.7586   11.2778 C   0  0  0  0  0  0  0  0  0  0  0  0
   -9.1530  -20.1507   10.7795 C   0  0  0  0  0  0  0  0  0  0  0  0
   -8.1017  -19.2294   10.6839 C   0  0  0  0  0  0  0  0  0  0  0  0
   -8.3349  -17.9032   11.0783 C   0  0  0  0  0  0  0  0  0  0  0  0
   -7.4773  -16.8281   11.0838 N   0  0  0  0  0  0  0  0  0  0  0  0
   -8.8530  -21.7658   10.2429 Cl  0  0  0  0  0  0  0  0  0  0  0  0
  -11.4669  -20.6323   11.3734 O   0  0  0  0  0  0  0  0  0  0  0  0
  -12.5262  -20.4408   10.5053 C   0  0  0  0  0  0  0  0  0  0  0  0
  -13.3188  -19.2846   10.5304 C   0  0  0  0  0  0  0  0  0  0  0  0
  -14.3665  -19.1344    9.6224 C   0  0  0  0  0  0  0  0  0  0  0  0
  -14.6219  -20.1279    8.6796 C   0  0  0  0  0  0  0  0  0  0  0  0
  -13.8238  -21.2756    8.6345 C   0  0  0  0  0  0  0  0  0  0  0  0
  -12.7674  -21.4342    9.5416 C   0  0  0  0  0  0  0  0  0  0  0  0
  -11.7588  -22.8458    9.4996 Cl  0  0  0  0  0  0  0  0  0  0  0  0
  -14.1988  -22.4584    7.4296 Cl  0  0  0  0  0  0  0  0  0  0  0  0
  1  2  1  0
  2  3  2  0
  2  4  1  0
  4  5  1  0
  5  6  1  0
  5 13  2  0
  6  7  1  0
  7  8  2  0
  7 12  1  0
  8  9  1  0
  9 10  2  0
  9 15  1  0
 10 11  1  0
 10 14  1  0
 11 12  2  0
 12 13  1  0
 15 16  1  0
 16 17  2  0
 16 21  1  0
 17 18  1  0
 18 19  2  0
 19 20  1  0
 20 21  2  0
 20 23  1  0
 21 22  1  0
M  END
>  <Gold.Gold.Protein.RotatedWaterAtoms>  (287) 


>  <Gold.Id.Protein>  (287) 


>  <Gold.PLP.Chemscore.CHOScore>  (287) 
0.0000

>  <Gold.PLP.Chemscore.Hbond>  (287) 
1.0000

>  <Gold.PLP.Chemscore.Internal.Correction>  (287) 
0.0086

>  <Gold.PLP.Chemscore.Metal>  (287) 
0.0000

>  <Gold.PLP.Fitness>  (287) 
50.7139

>  <Gold.PLP.PLP>  (287) 
-48.1706

>  <Gold.PLP.ligand.clash>  (287) 
0.0000

>  <Gold.PLP.ligand.torsion>  (287) 
0.2327

>  <Gold.PLP.part.buried>  (287) 
-6.5205

>  <Gold.PLP.part.hbond>  (287) 
-2.0000

>  <Gold.PLP.part.metal>  (287) 
0.0000

>  <Gold.PLP.part.nonpolar>  (287) 
-39.3857

>  <Gold.PLP.part.repulsive>  (287) 
0.3298

>  <Gold.Protein.RotatedAtoms>  (287) 


>  <Gold.Protein.RotatedTorsions>  (287) 


>  <Gold.Protein.RotatedWaterAtoms>  (287) 


>  <Gold.Version>  (287) 
5.3.0

>  <PLP.Chemscore.CHOScore>  (287) 


>  <PLP.Chemscore.Hbond>  (287) 


>  <PLP.Chemscore.Internal.Correction>  (287) 


>  <PLP.Chemscore.Metal>  (287) 


>  <PLP.Fitness>  (287) 


>  <PLP.PLP>  (287) 


>  <PLP.ligand.clash>  (287) 


>  <PLP.ligand.torsion>  (287) 


>  <PLP.part.buried>  (287) 


>  <PLP.part.hbond>  (287) 


>  <PLP.part.metal>  (287) 


>  <PLP.part.nonpolar>  (287) 


>  <PLP.part.repulsive>  (287) 


>  <RMSD>  (287) 
0.439733510035

>  <Torsion>  (287) 
177.672185574

>  <TorsionO>  (287) 
4.31728583372

>  <TorsionR>  (287) 
173.35489974

>  <Version>  (287) 


>  <product>  (287) 
54|Compound_24|Compounds_3D_F|sdf|10|dock1|1

>  <rmsd>  (287) 
-1

$$$$
62|Compound_24|Compounds_3D_F|sdf|10|dock9|1
     RDKit          3D

 10  9  0  0  0  0  0  0  0  0999 V2000
   -4.8948  -12.5086   13.3655 O   0  0  0  0  0  0  0  0  0  0  0  0
   -5.9604  -12.3738   12.5619 C   0  0  0  0  0  0  0  0  0  0  0  0
   -6.0884  -11.3783   11.8882 O   0  0  0  0  0  0  0  0  0  0  0  0
   -6.9997  -13.4636   12.4989 C   0  0  0  0  0  0  0  0  0  0  0  0
   -8.3953  -12.8367   12.4682 C   0  0  0  0  0  0  0  0  0  0  0  0
   -6.7878  -14.2991   11.2349 C   0  0  0  0  0  0  0  0  0  0  0  0
   -5.4801  -14.9576   11.2979 N   0  0  0  0  0  0  0  0  0  0  0  0
   -5.2884  -15.9949   12.1372 C   0  0  0  0  0  0  0  0  0  0  0  0
   -6.1977  -16.3828   12.8390 O   0  0  0  0  0  0  0  0  0  0  0  0
   -3.8875  -16.7002   12.2048 B   0  0  0  0  0  0  0  0  0  0  0  0
  1  2  1  0
  2  3  2  0
  2  4  1  0
  4  5  1  0
  4  6  1  0
  6  7  1  0
  7  8  1  0
  8  9  2  0
  8 10  1  0
M  END
>  <Gold.Gold.Protein.RotatedWaterAtoms>  (288) 


>  <Gold.Id.Protein>  (288) 


>  <Gold.PLP.Chemscore.CHOScore>  (288) 
0.0000

>  <Gold.PLP.Chemscore.Hbond>  (288) 
1.9913

>  <Gold.PLP.Chemscore.Internal.Correction>  (288) 
0.0007

>  <Gold.PLP.Chemscore.Metal>  (288) 
0.0000

>  <Gold.PLP.Fitness>  (288) 
36.0077

>  <Gold.PLP.PLP>  (288) 
-31.2064

>  <Gold.PLP.ligand.clash>  (288) 
0.0000

>  <Gold.PLP.ligand.torsion>  (288) 
0.5866

>  <Gold.PLP.part.buried>  (288) 
-6.8291

>  <Gold.PLP.part.hbond>  (288) 
-4.3209

>  <Gold.PLP.part.metal>  (288) 
0.0000

>  <Gold.PLP.part.nonpolar>  (288) 
-20.0737

>  <Gold.PLP.part.repulsive>  (288) 
0.4148

>  <Gold.Protein.RotatedAtoms>  (288) 


>  <Gold.Protein.RotatedTorsions>  (288) 


>  <Gold.Protein.RotatedWaterAtoms>  (288) 


>  <Gold.Version>  (288) 
5.3.0

>  <PLP.Chemscore.CHOScore>  (288) 


>  <PLP.Chemscore.Hbond>  (288) 


>  <PLP.Chemscore.Internal.Correction>  (288) 


>  <PLP.Chemscore.Metal>  (288) 


>  <PLP.Fitness>  (288) 


>  <PLP.PLP>  (288) 


>  <PLP.ligand.clash>  (288) 


>  <PLP.ligand.torsion>  (288) 


>  <PLP.part.buried>  (288) 


>  <PLP.part.hbond>  (288) 


>  <PLP.part.metal>  (288) 


>  <PLP.part.nonpolar>  (288) 


>  <PLP.part.repulsive>  (288) 


>  <Version>  (288) 


$$$$
94|664022_40|Aromatic_carboxylic_acids_F|sdf|24|dock1|1
     RDKit          3D

 12 12  0  0  0  0  0  0  0  0999 V2000
   -8.2596  -17.1212   11.4595 C   0  0  0  0  0  0  0  0  0  0  0  0
   -7.6366  -15.8367   11.6688 N   0  0  0  0  0  0  0  0  0  0  0  0
   -8.3409  -14.6553   11.5719 C   0  0  0  0  0  0  0  0  0  0  0  0
   -9.5296  -14.5547   11.2978 O   0  0  0  0  0  0  0  0  0  0  0  0
   -7.5420  -13.4431   11.8503 C   0  0  0  0  0  0  0  0  0  0  0  0
   -8.1627  -12.1983   11.6738 C   0  0  0  0  0  0  0  0  0  0  0  0
   -7.4390  -11.0301   11.9055 C   0  0  0  0  0  0  0  0  0  0  0  0
   -6.1069  -11.0910   12.3103 C   0  0  0  0  0  0  0  0  0  0  0  0
   -5.4897  -12.3324   12.4853 C   0  0  0  0  0  0  0  0  0  0  0  0
   -6.2035  -13.5136   12.2549 C   0  0  0  0  0  0  0  0  0  0  0  0
   -5.3062  -15.1564   12.5638 Br  0  0  0  0  0  0  0  0  0  0  0  0
   -8.1960   -9.5005   11.6887 Cl  0  0  0  0  0  0  0  0  0  0  0  0
  1  2  1  0
  2  3  1  0
  3  4  2  0
  3  5  1  0
  5  6  2  0
  5 10  1  0
  6  7  1  0
  7  8  2  0
  7 12  1  0
  8  9  1  0
  9 10  2  0
 10 11  1  0
M  END
>  <Gold.Gold.Protein.RotatedWaterAtoms>  (289) 


>  <Gold.Id.Protein>  (289) 


>  <Gold.PLP.Chemscore.CHOScore>  (289) 
0.0000

>  <Gold.PLP.Chemscore.Hbond>  (289) 
0.4160

>  <Gold.PLP.Chemscore.Internal.Correction>  (289) 
0.0004

>  <Gold.PLP.Chemscore.Metal>  (289) 
0.0000

>  <Gold.PLP.Fitness>  (289) 
48.9046

>  <Gold.PLP.PLP>  (289) 
-47.6744

>  <Gold.PLP.ligand.clash>  (289) 
0.0000

>  <Gold.PLP.ligand.torsion>  (289) 
0.0091

>  <Gold.PLP.part.buried>  (289) 
-7.3578

>  <Gold.PLP.part.hbond>  (289) 
-0.5127

>  <Gold.PLP.part.metal>  (289) 
0.0000

>  <Gold.PLP.part.nonpolar>  (289) 
-40.3098

>  <Gold.PLP.part.repulsive>  (289) 
0.1684

>  <Gold.Protein.RotatedAtoms>  (289) 


>  <Gold.Protein.RotatedTorsions>  (289) 


>  <Gold.Protein.RotatedWaterAtoms>  (289) 


>  <Gold.Version>  (289) 
5.3.0

>  <PLP.Chemscore.CHOScore>  (289) 


>  <PLP.Chemscore.Hbond>  (289) 


>  <PLP.Chemscore.Internal.Correction>  (289) 


>  <PLP.Chemscore.Metal>  (289) 


>  <PLP.Fitness>  (289) 


>  <PLP.PLP>  (289) 


>  <PLP.ligand.clash>  (289) 


>  <PLP.ligand.torsion>  (289) 


>  <PLP.part.buried>  (289) 


>  <PLP.part.hbond>  (289) 


>  <PLP.part.metal>  (289) 


>  <PLP.part.nonpolar>  (289) 


>  <PLP.part.repulsive>  (289) 


>  <RMSD>  (289) 
0.30972197429

>  <Torsion>  (289) 
172.929186758

>  <TorsionO>  (289) 
24.4968065243

>  <TorsionR>  (289) 
162.574006718

>  <Version>  (289) 


>  <product>  (289) 
62|Compound_24|Compounds_3D_F|sdf|10|dock9|1

>  <rmsd>  (289) 
-1

$$$$
110|565385_49|Aromatic_carboxylic_acids_F|sdf|29|dock1|1
     RDKit          3D

 13 13  0  0  0  0  0  0  0  0999 V2000
  -10.1118  -17.9021   11.6320 C   0  0  0  0  0  0  0  0  0  0  0  0
   -9.7537  -16.5043   11.6546 N   0  0  0  0  0  0  0  0  0  0  0  0
   -8.4330  -16.1187   11.7930 C   0  0  0  0  0  0  0  0  0  0  0  0
   -7.5159  -16.9298   11.9008 O   0  0  0  0  0  0  0  0  0  0  0  0
   -8.1234  -14.6552   11.8105 C   0  0  0  0  0  0  0  0  0  0  0  0
   -9.0636  -13.6551   11.5375 C   0  0  0  0  0  0  0  0  0  0  0  0
   -8.6966  -12.3009   11.5726 C   0  0  0  0  0  0  0  0  0  0  0  0
   -7.3879  -11.9195   11.8809 C   0  0  0  0  0  0  0  0  0  0  0  0
   -6.4486  -12.9235   12.1551 C   0  0  0  0  0  0  0  0  0  0  0  0
   -6.8098  -14.2750   12.1207 C   0  0  0  0  0  0  0  0  0  0  0  0
   -4.6444  -12.5025   12.5849 Br  0  0  0  0  0  0  0  0  0  0  0  0
   -6.9476  -10.6242   11.9372 O   0  0  0  0  0  0  0  0  0  0  0  0
   -7.9020   -9.5910   11.7256 C   0  0  0  0  0  0  0  0  0  0  0  0
  1  2  1  0
  2  3  1  0
  3  4  2  0
  3  5  1  0
  5  6  2  0
  5 10  1  0
  6  7  1  0
  7  8  2  0
  8  9  1  0
  8 12  1  0
  9 10  2  0
  9 11  1  0
 12 13  1  0
M  END
>  <Gold.Gold.Protein.RotatedWaterAtoms>  (290) 


>  <Gold.Id.Protein>  (290) 


>  <Gold.PLP.Chemscore.CHOScore>  (290) 
0.0000

>  <Gold.PLP.Chemscore.Hbond>  (290) 
1.0000

>  <Gold.PLP.Chemscore.Internal.Correction>  (290) 
0.0000

>  <Gold.PLP.Chemscore.Metal>  (290) 
0.0000

>  <Gold.PLP.Fitness>  (290) 
43.9775

>  <Gold.PLP.PLP>  (290) 
-41.0517

>  <Gold.PLP.ligand.clash>  (290) 
0.0000

>  <Gold.PLP.ligand.torsion>  (290) 
0.0371

>  <Gold.PLP.part.buried>  (290) 
-3.7367

>  <Gold.PLP.part.hbond>  (290) 
-1.0000

>  <Gold.PLP.part.metal>  (290) 
0.0000

>  <Gold.PLP.part.nonpolar>  (290) 
-36.7483

>  <Gold.PLP.part.repulsive>  (290) 
0.4054

>  <Gold.Protein.RotatedAtoms>  (290) 


>  <Gold.Protein.RotatedTorsions>  (290) 


>  <Gold.Protein.RotatedWaterAtoms>  (290) 


>  <Gold.Version>  (290) 
5.3.0

>  <PLP.Chemscore.CHOScore>  (290) 


>  <PLP.Chemscore.Hbond>  (290) 


>  <PLP.Chemscore.Internal.Correction>  (290) 


>  <PLP.Chemscore.Metal>  (290) 


>  <PLP.Fitness>  (290) 


>  <PLP.PLP>  (290) 


>  <PLP.ligand.clash>  (290) 


>  <PLP.ligand.torsion>  (290) 


>  <PLP.part.buried>  (290) 


>  <PLP.part.hbond>  (290) 


>  <PLP.part.metal>  (290) 


>  <PLP.part.nonpolar>  (290) 


>  <PLP.part.repulsive>  (290) 


>  <RMSD>  (290) 
0.319376411377

>  <Torsion>  (290) 
169.460450784

>  <TorsionO>  (290) 
9.7963905484

>  <TorsionR>  (290) 
179.256841332

>  <Version>  (290) 


>  <product>  (290) 
62|Compound_24|Compounds_3D_F|sdf|10|dock9|1

>  <rmsd>  (290) 
-1

$$$$
128|137677_56|Aromatic_carboxylic_acids_F|sdf|33|dock1|1
     RDKit          3D

 11 11  0  0  0  0  0  0  0  0999 V2000
   -8.6116  -16.1544   11.8887 C   0  0  0  0  0  0  0  0  0  0  0  0
   -7.9978  -14.8484   11.9215 N   0  0  0  0  0  0  0  0  0  0  0  0
   -8.7778  -13.7008   11.8756 C   0  0  0  0  0  0  0  0  0  0  0  0
  -10.0002  -13.7896   11.8139 O   0  0  0  0  0  0  0  0  0  0  0  0
   -8.0808  -12.3609   11.9017 C   0  0  0  0  0  0  0  0  0  0  0  0
   -8.7916  -11.1851   11.5813 C   0  0  0  0  0  0  0  0  0  0  0  0
   -8.1781   -9.9267   11.5989 C   0  0  0  0  0  0  0  0  0  0  0  0
   -6.8391   -9.8089   11.9369 C   0  0  0  0  0  0  0  0  0  0  0  0
   -6.1124  -10.9502   12.2575 C   0  0  0  0  0  0  0  0  0  0  0  0
   -6.7171  -12.2196   12.2428 C   0  0  0  0  0  0  0  0  0  0  0  0
   -5.5419  -13.6455   12.7121 Br  0  0  0  0  0  0  0  0  0  0  0  0
  1  2  1  0
  2  3  1  0
  3  4  2  0
  3  5  1  0
  5  6  2  0
  5 10  1  0
  6  7  1  0
  7  8  2  0
  8  9  1  0
  9 10  2  0
 10 11  1  0
M  END
>  <Gold.Gold.Protein.RotatedWaterAtoms>  (291) 


>  <Gold.Id.Protein>  (291) 


>  <Gold.PLP.Chemscore.CHOScore>  (291) 
0.0000

>  <Gold.PLP.Chemscore.Hbond>  (291) 
1.0000

>  <Gold.PLP.Chemscore.Internal.Correction>  (291) 
0.0000

>  <Gold.PLP.Chemscore.Metal>  (291) 
0.0000

>  <Gold.PLP.Fitness>  (291) 
45.2899

>  <Gold.PLP.PLP>  (291) 
-42.4444

>  <Gold.PLP.ligand.clash>  (291) 
0.0000

>  <Gold.PLP.ligand.torsion>  (291) 
0.0772

>  <Gold.PLP.part.buried>  (291) 
-6.4690

>  <Gold.PLP.part.hbond>  (291) 
-0.6863

>  <Gold.PLP.part.metal>  (291) 
0.0000

>  <Gold.PLP.part.nonpolar>  (291) 
-34.8280

>  <Gold.PLP.part.repulsive>  (291) 
0.1963

>  <Gold.Protein.RotatedAtoms>  (291) 


>  <Gold.Protein.RotatedTorsions>  (291) 


>  <Gold.Protein.RotatedWaterAtoms>  (291) 


>  <Gold.Version>  (291) 
5.3.0

>  <PLP.Chemscore.CHOScore>  (291) 


>  <PLP.Chemscore.Hbond>  (291) 


>  <PLP.Chemscore.Internal.Correction>  (291) 


>  <PLP.Chemscore.Metal>  (291) 


>  <PLP.Fitness>  (291) 


>  <PLP.PLP>  (291) 


>  <PLP.ligand.clash>  (291) 


>  <PLP.ligand.torsion>  (291) 


>  <PLP.part.buried>  (291) 


>  <PLP.part.hbond>  (291) 


>  <PLP.part.metal>  (291) 


>  <PLP.part.nonpolar>  (291) 


>  <PLP.part.repulsive>  (291) 


>  <RMSD>  (291) 
0.428070490903

>  <Torsion>  (291) 
152.444048788

>  <TorsionO>  (291) 
39.0580871276

>  <TorsionR>  (291) 
168.497864085

>  <Version>  (291) 


>  <product>  (291) 
62|Compound_24|Compounds_3D_F|sdf|10|dock9|1

>  <rmsd>  (291) 
-1

$$$$
974|750794_1404|Aromatic_primary_amines_F|sdf|194|dock3|1
     RDKit          3D

 14 14  0  0  0  0  0  0  0  0999 V2000
  -13.6355  -18.1936    9.4145 C   0  0  0  0  0  0  0  0  0  0  0  0
  -13.2544  -19.4497   10.1732 C   0  0  0  0  0  0  0  0  0  0  0  0
  -11.8731  -19.3506   10.5383 O   0  0  0  0  0  0  0  0  0  0  0  0
  -11.6148  -18.5085   11.5823 C   0  0  0  0  0  0  0  0  0  0  0  0
  -12.3947  -18.2810   12.5004 O   0  0  0  0  0  0  0  0  0  0  0  0
  -10.3031  -17.8985   11.4902 C   0  0  0  0  0  0  0  0  0  0  0  0
   -9.1673  -18.4974   10.9931 C   0  0  0  0  0  0  0  0  0  0  0  0
   -8.1448  -17.6055   11.0758 O   0  0  0  0  0  0  0  0  0  0  0  0
   -8.7110  -16.4917   11.6237 C   0  0  0  0  0  0  0  0  0  0  0  0
   -9.9933  -16.6110   11.8915 N   0  0  0  0  0  0  0  0  0  0  0  0
   -7.9611  -15.3718   11.8549 N   0  0  0  0  0  0  0  0  0  0  0  0
   -8.5046  -14.1249   12.0676 C   0  0  0  0  0  0  0  0  0  0  0  0
   -9.6950  -13.8313   12.1035 O   0  0  0  0  0  0  0  0  0  0  0  0
   -7.4448  -13.0785   12.3021 C   0  0  0  0  0  0  0  0  0  0  0  0
  1  2  1  0
  2  3  1  0
  3  4  1  0
  4  5  2  0
  4  6  1  0
  6  7  2  0
  6 10  1  0
  7  8  1  0
  8  9  1  0
  9 10  2  0
  9 11  1  0
 11 12  1  0
 12 13  2  0
 12 14  1  0
M  END
>  <Gold.Gold.Protein.RotatedWaterAtoms>  (292) 


>  <Gold.Id.Protein>  (292) 


>  <Gold.PLP.Chemscore.CHOScore>  (292) 
0.0000

>  <Gold.PLP.Chemscore.Hbond>  (292) 
2.0000

>  <Gold.PLP.Chemscore.Internal.Correction>  (292) 
0.0053

>  <Gold.PLP.Chemscore.Metal>  (292) 
0.0000

>  <Gold.PLP.Fitness>  (292) 
36.8047

>  <Gold.PLP.PLP>  (292) 
-32.7996

>  <Gold.PLP.ligand.clash>  (292) 
0.0000

>  <Gold.PLP.ligand.torsion>  (292) 
1.0001

>  <Gold.PLP.part.buried>  (292) 
-6.5206

>  <Gold.PLP.part.hbond>  (292) 
-2.9156

>  <Gold.PLP.part.metal>  (292) 
0.0000

>  <Gold.PLP.part.nonpolar>  (292) 
-23.4080

>  <Gold.PLP.part.repulsive>  (292) 
0.3100

>  <Gold.Protein.RotatedAtoms>  (292) 


>  <Gold.Protein.RotatedTorsions>  (292) 


>  <Gold.Protein.RotatedWaterAtoms>  (292) 


>  <Gold.Version>  (292) 
5.3.0

>  <PLP.Chemscore.CHOScore>  (292) 


>  <PLP.Chemscore.Hbond>  (292) 


>  <PLP.Chemscore.Internal.Correction>  (292) 


>  <PLP.Chemscore.Metal>  (292) 


>  <PLP.Fitness>  (292) 


>  <PLP.PLP>  (292) 


>  <PLP.ligand.clash>  (292) 


>  <PLP.ligand.torsion>  (292) 


>  <PLP.part.buried>  (292) 


>  <PLP.part.hbond>  (292) 


>  <PLP.part.metal>  (292) 


>  <PLP.part.nonpolar>  (292) 


>  <PLP.part.repulsive>  (292) 


>  <RMSD>  (292) 
0.499949349045

>  <Torsion>  (292) 
159.973716791

>  <TorsionO>  (292) 
19.1052109979

>  <TorsionR>  (292) 
179.078927789

>  <Version>  (292) 


>  <product>  (292) 
62|Compound_24|Compounds_3D_F|sdf|10|dock9|1

>  <rmsd>  (292) 
-1

$$$$
1884|M3006_1781|Aromatic_primary_amines_F|sdf|361|dock3|1
     RDKit          3D

 31 34  0  0  0  0  0  0  0  0999 V2000
  -14.4210  -19.8971    8.7934 C   0  0  0  0  0  0  0  0  0  0  0  0
  -13.9762  -19.4927   10.1894 C   0  0  0  0  0  0  0  0  0  0  0  0
  -14.1356  -20.6409   11.1817 C   0  0  0  0  0  0  0  0  0  0  0  0
  -13.5197  -20.3070   12.5189 C   0  0  0  0  0  0  0  0  0  0  0  0
  -12.9307  -19.2724   12.7954 O   0  0  0  0  0  0  0  0  0  0  0  0
  -13.7110  -21.3451   13.3845 O   0  0  0  0  0  0  0  0  0  0  0  0
  -12.9425  -21.2698   14.5900 C   0  0  0  0  0  0  0  0  0  0  0  0
  -12.8849  -22.6189   15.2889 C   0  0  0  0  0  0  0  0  0  0  0  0
  -11.6552  -22.4172   16.1494 C   0  0  0  0  0  0  0  0  0  0  0  0
  -11.2420  -23.7410   16.7624 C   0  0  0  0  0  0  0  0  0  0  0  0
  -12.3024  -24.2223   17.5862 O   0  0  0  0  0  0  0  0  0  0  0  0
  -13.7888  -24.3384   16.9603 P   0  0  0  0  0  0  0  0  0  0  0  0
  -14.8775  -24.6795   17.9243 O   0  0  0  0  0  0  0  0  0  0  0  0
  -13.9839  -22.9641   16.1174 O   0  0  0  0  0  0  0  0  0  0  0  0
  -13.5991  -25.4435   15.8075 O   0  0  0  0  0  0  0  0  0  0  0  0
  -10.6922  -21.8161   15.2889 O   0  0  0  0  0  0  0  0  0  0  0  0
  -11.4338  -20.9664   14.3653 C   0  0  0  0  0  0  0  0  0  0  0  0
  -10.9052  -21.2017   13.0342 N   0  0  0  0  0  0  0  0  0  0  0  0
  -10.7814  -22.4114   12.4013 C   0  0  0  0  0  0  0  0  0  0  0  0
  -10.2640  -22.2918   11.1953 N   0  0  0  0  0  0  0  0  0  0  0  0
  -10.0274  -20.9476   11.0424 C   0  0  0  0  0  0  0  0  0  0  0  0
  -10.4203  -20.2487   12.1733 C   0  0  0  0  0  0  0  0  0  0  0  0
  -10.3338  -18.9216   12.3641 N   0  0  0  0  0  0  0  0  0  0  0  0
   -9.8057  -18.2730   11.3024 C   0  0  0  0  0  0  0  0  0  0  0  0
   -9.3808  -18.8370   10.1545 N   0  0  0  0  0  0  0  0  0  0  0  0
   -9.4895  -20.1691   10.0244 C   0  0  0  0  0  0  0  0  0  0  0  0
   -9.0330  -20.6622    8.8349 O   0  0  0  0  0  0  0  0  0  0  0  0
   -9.7222  -16.8901   11.4793 N   0  0  0  0  0  0  0  0  0  0  0  0
   -8.5796  -16.1798   11.7761 C   0  0  0  0  0  0  0  0  0  0  0  0
   -7.4445  -16.6221   11.9131 O   0  0  0  0  0  0  0  0  0  0  0  0
   -8.8524  -14.7024   11.8973 C   0  0  0  0  0  0  0  0  0  0  0  0
  1  2  1  0
  2  3  1  0
  3  4  1  0
  4  5  2  0
  4  6  1  0
  6  7  1  0
  7  8  1  0
  7 17  1  0
  8  9  1  0
  8 14  1  0
  9 10  1  0
  9 16  1  0
 10 11  1  0
 11 12  1  0
 12 13  2  0
 12 14  1  0
 12 15  1  0
 16 17  1  0
 17 18  1  0
 18 19  1  0
 18 22  1  0
 19 20  2  0
 20 21  1  0
 21 22  2  0
 21 26  1  0
 22 23  1  0
 23 24  2  0
 24 25  1  0
 24 28  1  0
 25 26  2  0
 26 27  1  0
 28 29  1  0
 29 30  2  0
 29 31  1  0
M  END
>  <Gold.Gold.Protein.RotatedWaterAtoms>  (293) 


>  <Gold.Id.Protein>  (293) 


>  <Gold.PLP.Chemscore.CHOScore>  (293) 
0.0000

>  <Gold.PLP.Chemscore.Hbond>  (293) 
1.2080

>  <Gold.PLP.Chemscore.Internal.Correction>  (293) 
0.1232

>  <Gold.PLP.Chemscore.Metal>  (293) 
0.0000

>  <Gold.PLP.Fitness>  (293) 
47.7145

>  <Gold.PLP.PLP>  (293) 
-46.0218

>  <Gold.PLP.ligand.clash>  (293) 
0.0000

>  <Gold.PLP.ligand.torsion>  (293) 
1.0272

>  <Gold.PLP.part.buried>  (293) 
-2.2958

>  <Gold.PLP.part.hbond>  (293) 
-4.0214

>  <Gold.PLP.part.metal>  (293) 
0.0000

>  <Gold.PLP.part.nonpolar>  (293) 
-41.4699

>  <Gold.PLP.part.repulsive>  (293) 
0.9524

>  <Gold.Protein.RotatedAtoms>  (293) 


>  <Gold.Protein.RotatedTorsions>  (293) 


>  <Gold.Protein.RotatedWaterAtoms>  (293) 


>  <Gold.Version>  (293) 
5.3.0

>  <PLP.Chemscore.CHOScore>  (293) 


>  <PLP.Chemscore.Hbond>  (293) 


>  <PLP.Chemscore.Internal.Correction>  (293) 


>  <PLP.Chemscore.Metal>  (293) 


>  <PLP.Fitness>  (293) 


>  <PLP.PLP>  (293) 


>  <PLP.ligand.clash>  (293) 


>  <PLP.ligand.torsion>  (293) 


>  <PLP.part.buried>  (293) 


>  <PLP.part.hbond>  (293) 


>  <PLP.part.metal>  (293) 


>  <PLP.part.nonpolar>  (293) 


>  <PLP.part.repulsive>  (293) 


>  <RMSD>  (293) 
0.291955871297

>  <Torsion>  (293) 
171.923704933

>  <TorsionO>  (293) 
6.03609353985

>  <TorsionR>  (293) 
177.959798473

>  <Version>  (293) 


>  <product>  (293) 
62|Compound_24|Compounds_3D_F|sdf|10|dock9|1

>  <rmsd>  (293) 
-1

$$$$
193|32168_281|Aromatic_primary_amines_F|sdf|39|dock6|1
     RDKit          3D

 23 25  0  0  0  0  0  0  0  0999 V2000
   -7.8439  -12.1461   11.8919 C   0  0  0  0  0  0  0  0  0  0  0  0
   -8.5691  -13.4472   11.6781 C   0  0  0  0  0  0  0  0  0  0  0  0
   -9.7886  -13.4981   11.5208 O   0  0  0  0  0  0  0  0  0  0  0  0
   -7.7264  -14.5390   11.7020 N   0  0  0  0  0  0  0  0  0  0  0  0
   -8.1889  -15.8197   11.5323 C   0  0  0  0  0  0  0  0  0  0  0  0
   -9.4747  -16.2039   11.8163 N   0  0  0  0  0  0  0  0  0  0  0  0
   -9.5964  -17.5375   11.5379 C   0  0  0  0  0  0  0  0  0  0  0  0
  -10.6643  -18.4283   11.6415 C   0  0  0  0  0  0  0  0  0  0  0  0
  -10.4051  -19.7586   11.2778 C   0  0  0  0  0  0  0  0  0  0  0  0
   -9.1530  -20.1507   10.7795 C   0  0  0  0  0  0  0  0  0  0  0  0
   -8.1017  -19.2294   10.6839 C   0  0  0  0  0  0  0  0  0  0  0  0
   -8.3349  -17.9032   11.0783 C   0  0  0  0  0  0  0  0  0  0  0  0
   -7.4773  -16.8281   11.0838 N   0  0  0  0  0  0  0  0  0  0  0  0
   -8.8530  -21.7658   10.2429 Cl  0  0  0  0  0  0  0  0  0  0  0  0
  -11.4669  -20.6323   11.3734 O   0  0  0  0  0  0  0  0  0  0  0  0
  -12.5262  -20.4408   10.5053 C   0  0  0  0  0  0  0  0  0  0  0  0
  -13.3188  -19.2846   10.5304 C   0  0  0  0  0  0  0  0  0  0  0  0
  -14.3665  -19.1344    9.6224 C   0  0  0  0  0  0  0  0  0  0  0  0
  -14.6219  -20.1279    8.6796 C   0  0  0  0  0  0  0  0  0  0  0  0
  -13.8238  -21.2756    8.6345 C   0  0  0  0  0  0  0  0  0  0  0  0
  -12.7674  -21.4342    9.5416 C   0  0  0  0  0  0  0  0  0  0  0  0
  -11.7588  -22.8458    9.4996 Cl  0  0  0  0  0  0  0  0  0  0  0  0
  -14.1988  -22.4584    7.4296 Cl  0  0  0  0  0  0  0  0  0  0  0  0
  1  2  1  0
  2  3  2  0
  2  4  1  0
  4  5  1  0
  5  6  1  0
  5 13  2  0
  6  7  1  0
  7  8  2  0
  7 12  1  0
  8  9  1  0
  9 10  2  0
  9 15  1  0
 10 11  1  0
 10 14  1  0
 11 12  2  0
 12 13  1  0
 15 16  1  0
 16 17  2  0
 16 21  1  0
 17 18  1  0
 18 19  2  0
 19 20  1  0
 20 21  2  0
 20 23  1  0
 21 22  1  0
M  END
>  <Gold.Gold.Protein.RotatedWaterAtoms>  (294) 


>  <Gold.Id.Protein>  (294) 


>  <Gold.PLP.Chemscore.CHOScore>  (294) 
0.0000

>  <Gold.PLP.Chemscore.Hbond>  (294) 
1.0000

>  <Gold.PLP.Chemscore.Internal.Correction>  (294) 
0.0086

>  <Gold.PLP.Chemscore.Metal>  (294) 
0.0000

>  <Gold.PLP.Fitness>  (294) 
50.7139

>  <Gold.PLP.PLP>  (294) 
-48.1706

>  <Gold.PLP.ligand.clash>  (294) 
0.0000

>  <Gold.PLP.ligand.torsion>  (294) 
0.2327

>  <Gold.PLP.part.buried>  (294) 
-6.5205

>  <Gold.PLP.part.hbond>  (294) 
-2.0000

>  <Gold.PLP.part.metal>  (294) 
0.0000

>  <Gold.PLP.part.nonpolar>  (294) 
-39.3857

>  <Gold.PLP.part.repulsive>  (294) 
0.3298

>  <Gold.Protein.RotatedAtoms>  (294) 


>  <Gold.Protein.RotatedTorsions>  (294) 


>  <Gold.Protein.RotatedWaterAtoms>  (294) 


>  <Gold.Version>  (294) 
5.3.0

>  <PLP.Chemscore.CHOScore>  (294) 


>  <PLP.Chemscore.Hbond>  (294) 


>  <PLP.Chemscore.Internal.Correction>  (294) 


>  <PLP.Chemscore.Metal>  (294) 


>  <PLP.Fitness>  (294) 


>  <PLP.PLP>  (294) 


>  <PLP.ligand.clash>  (294) 


>  <PLP.ligand.torsion>  (294) 


>  <PLP.part.buried>  (294) 


>  <PLP.part.hbond>  (294) 


>  <PLP.part.metal>  (294) 


>  <PLP.part.nonpolar>  (294) 


>  <PLP.part.repulsive>  (294) 


>  <RMSD>  (294) 
0.439733510035

>  <Torsion>  (294) 
177.672185574

>  <TorsionO>  (294) 
4.31728583372

>  <TorsionR>  (294) 
173.35489974

>  <Version>  (294) 


>  <product>  (294) 
62|Compound_24|Compounds_3D_F|sdf|10|dock9|1

>  <rmsd>  (294) 
-1

$$$$
61|Compound_24|Compounds_3D_F|sdf|10|dock8|1
     RDKit          3D

 10  9  0  0  0  0  0  0  0  0999 V2000
   -4.6072  -12.3947   13.3318 O   0  0  0  0  0  0  0  0  0  0  0  0
   -5.7242  -12.0902   12.6541 C   0  0  0  0  0  0  0  0  0  0  0  0
   -5.9148  -10.9567   12.2795 O   0  0  0  0  0  0  0  0  0  0  0  0
   -6.7429  -13.1613   12.3598 C   0  0  0  0  0  0  0  0  0  0  0  0
   -7.9263  -12.5474   11.6085 C   0  0  0  0  0  0  0  0  0  0  0  0
   -6.1029  -14.2524   11.4993 C   0  0  0  0  0  0  0  0  0  0  0  0
   -7.1520  -15.0938   10.9171 N   0  0  0  0  0  0  0  0  0  0  0  0
   -7.0603  -15.4921    9.6325 C   0  0  0  0  0  0  0  0  0  0  0  0
   -6.1100  -15.1545    8.9597 O   0  0  0  0  0  0  0  0  0  0  0  0
   -8.1843  -16.3934    9.0090 B   0  0  0  0  0  0  0  0  0  0  0  0
  1  2  1  0
  2  3  2  0
  2  4  1  0
  4  5  1  0
  4  6  1  0
  6  7  1  0
  7  8  1  0
  8  9  2  0
  8 10  1  0
M  END
>  <Gold.Gold.Protein.RotatedWaterAtoms>  (295) 


>  <Gold.Id.Protein>  (295) 


>  <Gold.PLP.Chemscore.CHOScore>  (295) 
0.0000

>  <Gold.PLP.Chemscore.Hbond>  (295) 
2.0000

>  <Gold.PLP.Chemscore.Internal.Correction>  (295) 
0.0011

>  <Gold.PLP.Chemscore.Metal>  (295) 
0.0000

>  <Gold.PLP.Fitness>  (295) 
32.8203

>  <Gold.PLP.PLP>  (295) 
-27.3001

>  <Gold.PLP.ligand.clash>  (295) 
0.0069

>  <Gold.PLP.ligand.torsion>  (295) 
0.2370

>  <Gold.PLP.part.buried>  (295) 
-6.8101

>  <Gold.PLP.part.hbond>  (295) 
-4.0000

>  <Gold.PLP.part.metal>  (295) 
0.0000

>  <Gold.PLP.part.nonpolar>  (295) 
-18.0573

>  <Gold.PLP.part.repulsive>  (295) 
0.5602

>  <Gold.Protein.RotatedAtoms>  (295) 


>  <Gold.Protein.RotatedTorsions>  (295) 


>  <Gold.Protein.RotatedWaterAtoms>  (295) 


>  <Gold.Version>  (295) 
5.3.0

>  <PLP.Chemscore.CHOScore>  (295) 


>  <PLP.Chemscore.Hbond>  (295) 


>  <PLP.Chemscore.Internal.Correction>  (295) 


>  <PLP.Chemscore.Metal>  (295) 


>  <PLP.Fitness>  (295) 


>  <PLP.PLP>  (295) 


>  <PLP.ligand.clash>  (295) 


>  <PLP.ligand.torsion>  (295) 


>  <PLP.part.buried>  (295) 


>  <PLP.part.hbond>  (295) 


>  <PLP.part.metal>  (295) 


>  <PLP.part.nonpolar>  (295) 


>  <PLP.part.repulsive>  (295) 


>  <Version>  (295) 


$$$$
94|664022_40|Aromatic_carboxylic_acids_F|sdf|24|dock1|1
     RDKit          3D

 12 12  0  0  0  0  0  0  0  0999 V2000
   -8.2596  -17.1212   11.4595 C   0  0  0  0  0  0  0  0  0  0  0  0
   -7.6366  -15.8367   11.6688 N   0  0  0  0  0  0  0  0  0  0  0  0
   -8.3409  -14.6553   11.5719 C   0  0  0  0  0  0  0  0  0  0  0  0
   -9.5296  -14.5547   11.2978 O   0  0  0  0  0  0  0  0  0  0  0  0
   -7.5420  -13.4431   11.8503 C   0  0  0  0  0  0  0  0  0  0  0  0
   -8.1627  -12.1983   11.6738 C   0  0  0  0  0  0  0  0  0  0  0  0
   -7.4390  -11.0301   11.9055 C   0  0  0  0  0  0  0  0  0  0  0  0
   -6.1069  -11.0910   12.3103 C   0  0  0  0  0  0  0  0  0  0  0  0
   -5.4897  -12.3324   12.4853 C   0  0  0  0  0  0  0  0  0  0  0  0
   -6.2035  -13.5136   12.2549 C   0  0  0  0  0  0  0  0  0  0  0  0
   -5.3062  -15.1564   12.5638 Br  0  0  0  0  0  0  0  0  0  0  0  0
   -8.1960   -9.5005   11.6887 Cl  0  0  0  0  0  0  0  0  0  0  0  0
  1  2  1  0
  2  3  1  0
  3  4  2  0
  3  5  1  0
  5  6  2  0
  5 10  1  0
  6  7  1  0
  7  8  2  0
  7 12  1  0
  8  9  1  0
  9 10  2  0
 10 11  1  0
M  END
>  <Gold.Gold.Protein.RotatedWaterAtoms>  (296) 


>  <Gold.Id.Protein>  (296) 


>  <Gold.PLP.Chemscore.CHOScore>  (296) 
0.0000

>  <Gold.PLP.Chemscore.Hbond>  (296) 
0.4160

>  <Gold.PLP.Chemscore.Internal.Correction>  (296) 
0.0004

>  <Gold.PLP.Chemscore.Metal>  (296) 
0.0000

>  <Gold.PLP.Fitness>  (296) 
48.9046

>  <Gold.PLP.PLP>  (296) 
-47.6744

>  <Gold.PLP.ligand.clash>  (296) 
0.0000

>  <Gold.PLP.ligand.torsion>  (296) 
0.0091

>  <Gold.PLP.part.buried>  (296) 
-7.3578

>  <Gold.PLP.part.hbond>  (296) 
-0.5127

>  <Gold.PLP.part.metal>  (296) 
0.0000

>  <Gold.PLP.part.nonpolar>  (296) 
-40.3098

>  <Gold.PLP.part.repulsive>  (296) 
0.1684

>  <Gold.Protein.RotatedAtoms>  (296) 


>  <Gold.Protein.RotatedTorsions>  (296) 


>  <Gold.Protein.RotatedWaterAtoms>  (296) 


>  <Gold.Version>  (296) 
5.3.0

>  <PLP.Chemscore.CHOScore>  (296) 


>  <PLP.Chemscore.Hbond>  (296) 


>  <PLP.Chemscore.Internal.Correction>  (296) 


>  <PLP.Chemscore.Metal>  (296) 


>  <PLP.Fitness>  (296) 


>  <PLP.PLP>  (296) 


>  <PLP.ligand.clash>  (296) 


>  <PLP.ligand.torsion>  (296) 


>  <PLP.part.buried>  (296) 


>  <PLP.part.hbond>  (296) 


>  <PLP.part.metal>  (296) 


>  <PLP.part.nonpolar>  (296) 


>  <PLP.part.repulsive>  (296) 


>  <RMSD>  (296) 
0.30972197429

>  <Torsion>  (296) 
172.929186758

>  <TorsionO>  (296) 
24.4968065243

>  <TorsionR>  (296) 
162.574006718

>  <Version>  (296) 


>  <product>  (296) 
61|Compound_24|Compounds_3D_F|sdf|10|dock8|1

>  <rmsd>  (296) 
-1

$$$$
110|565385_49|Aromatic_carboxylic_acids_F|sdf|29|dock1|1
     RDKit          3D

 13 13  0  0  0  0  0  0  0  0999 V2000
  -10.1118  -17.9021   11.6320 C   0  0  0  0  0  0  0  0  0  0  0  0
   -9.7537  -16.5043   11.6546 N   0  0  0  0  0  0  0  0  0  0  0  0
   -8.4330  -16.1187   11.7930 C   0  0  0  0  0  0  0  0  0  0  0  0
   -7.5159  -16.9298   11.9008 O   0  0  0  0  0  0  0  0  0  0  0  0
   -8.1234  -14.6552   11.8105 C   0  0  0  0  0  0  0  0  0  0  0  0
   -9.0636  -13.6551   11.5375 C   0  0  0  0  0  0  0  0  0  0  0  0
   -8.6966  -12.3009   11.5726 C   0  0  0  0  0  0  0  0  0  0  0  0
   -7.3879  -11.9195   11.8809 C   0  0  0  0  0  0  0  0  0  0  0  0
   -6.4486  -12.9235   12.1551 C   0  0  0  0  0  0  0  0  0  0  0  0
   -6.8098  -14.2750   12.1207 C   0  0  0  0  0  0  0  0  0  0  0  0
   -4.6444  -12.5025   12.5849 Br  0  0  0  0  0  0  0  0  0  0  0  0
   -6.9476  -10.6242   11.9372 O   0  0  0  0  0  0  0  0  0  0  0  0
   -7.9020   -9.5910   11.7256 C   0  0  0  0  0  0  0  0  0  0  0  0
  1  2  1  0
  2  3  1  0
  3  4  2  0
  3  5  1  0
  5  6  2  0
  5 10  1  0
  6  7  1  0
  7  8  2  0
  8  9  1  0
  8 12  1  0
  9 10  2  0
  9 11  1  0
 12 13  1  0
M  END
>  <Gold.Gold.Protein.RotatedWaterAtoms>  (297) 


>  <Gold.Id.Protein>  (297) 


>  <Gold.PLP.Chemscore.CHOScore>  (297) 
0.0000

>  <Gold.PLP.Chemscore.Hbond>  (297) 
1.0000

>  <Gold.PLP.Chemscore.Internal.Correction>  (297) 
0.0000

>  <Gold.PLP.Chemscore.Metal>  (297) 
0.0000

>  <Gold.PLP.Fitness>  (297) 
43.9775

>  <Gold.PLP.PLP>  (297) 
-41.0517

>  <Gold.PLP.ligand.clash>  (297) 
0.0000

>  <Gold.PLP.ligand.torsion>  (297) 
0.0371

>  <Gold.PLP.part.buried>  (297) 
-3.7367

>  <Gold.PLP.part.hbond>  (297) 
-1.0000

>  <Gold.PLP.part.metal>  (297) 
0.0000

>  <Gold.PLP.part.nonpolar>  (297) 
-36.7483

>  <Gold.PLP.part.repulsive>  (297) 
0.4054

>  <Gold.Protein.RotatedAtoms>  (297) 


>  <Gold.Protein.RotatedTorsions>  (297) 


>  <Gold.Protein.RotatedWaterAtoms>  (297) 


>  <Gold.Version>  (297) 
5.3.0

>  <PLP.Chemscore.CHOScore>  (297) 


>  <PLP.Chemscore.Hbond>  (297) 


>  <PLP.Chemscore.Internal.Correction>  (297) 


>  <PLP.Chemscore.Metal>  (297) 


>  <PLP.Fitness>  (297) 


>  <PLP.PLP>  (297) 


>  <PLP.ligand.clash>  (297) 


>  <PLP.ligand.torsion>  (297) 


>  <PLP.part.buried>  (297) 


>  <PLP.part.hbond>  (297) 


>  <PLP.part.metal>  (297) 


>  <PLP.part.nonpolar>  (297) 


>  <PLP.part.repulsive>  (297) 


>  <RMSD>  (297) 
0.319376411377

>  <Torsion>  (297) 
169.460450784

>  <TorsionO>  (297) 
9.7963905484

>  <TorsionR>  (297) 
179.256841332

>  <Version>  (297) 


>  <product>  (297) 
61|Compound_24|Compounds_3D_F|sdf|10|dock8|1

>  <rmsd>  (297) 
-1

$$$$
128|137677_56|Aromatic_carboxylic_acids_F|sdf|33|dock1|1
     RDKit          3D

 11 11  0  0  0  0  0  0  0  0999 V2000
   -8.6116  -16.1544   11.8887 C   0  0  0  0  0  0  0  0  0  0  0  0
   -7.9978  -14.8484   11.9215 N   0  0  0  0  0  0  0  0  0  0  0  0
   -8.7778  -13.7008   11.8756 C   0  0  0  0  0  0  0  0  0  0  0  0
  -10.0002  -13.7896   11.8139 O   0  0  0  0  0  0  0  0  0  0  0  0
   -8.0808  -12.3609   11.9017 C   0  0  0  0  0  0  0  0  0  0  0  0
   -8.7916  -11.1851   11.5813 C   0  0  0  0  0  0  0  0  0  0  0  0
   -8.1781   -9.9267   11.5989 C   0  0  0  0  0  0  0  0  0  0  0  0
   -6.8391   -9.8089   11.9369 C   0  0  0  0  0  0  0  0  0  0  0  0
   -6.1124  -10.9502   12.2575 C   0  0  0  0  0  0  0  0  0  0  0  0
   -6.7171  -12.2196   12.2428 C   0  0  0  0  0  0  0  0  0  0  0  0
   -5.5419  -13.6455   12.7121 Br  0  0  0  0  0  0  0  0  0  0  0  0
  1  2  1  0
  2  3  1  0
  3  4  2  0
  3  5  1  0
  5  6  2  0
  5 10  1  0
  6  7  1  0
  7  8  2  0
  8  9  1  0
  9 10  2  0
 10 11  1  0
M  END
>  <Gold.Gold.Protein.RotatedWaterAtoms>  (298) 


>  <Gold.Id.Protein>  (298) 


>  <Gold.PLP.Chemscore.CHOScore>  (298) 
0.0000

>  <Gold.PLP.Chemscore.Hbond>  (298) 
1.0000

>  <Gold.PLP.Chemscore.Internal.Correction>  (298) 
0.0000

>  <Gold.PLP.Chemscore.Metal>  (298) 
0.0000

>  <Gold.PLP.Fitness>  (298) 
45.2899

>  <Gold.PLP.PLP>  (298) 
-42.4444

>  <Gold.PLP.ligand.clash>  (298) 
0.0000

>  <Gold.PLP.ligand.torsion>  (298) 
0.0772

>  <Gold.PLP.part.buried>  (298) 
-6.4690

>  <Gold.PLP.part.hbond>  (298) 
-0.6863

>  <Gold.PLP.part.metal>  (298) 
0.0000

>  <Gold.PLP.part.nonpolar>  (298) 
-34.8280

>  <Gold.PLP.part.repulsive>  (298) 
0.1963

>  <Gold.Protein.RotatedAtoms>  (298) 


>  <Gold.Protein.RotatedTorsions>  (298) 


>  <Gold.Protein.RotatedWaterAtoms>  (298) 


>  <Gold.Version>  (298) 
5.3.0

>  <PLP.Chemscore.CHOScore>  (298) 


>  <PLP.Chemscore.Hbond>  (298) 


>  <PLP.Chemscore.Internal.Correction>  (298) 


>  <PLP.Chemscore.Metal>  (298) 


>  <PLP.Fitness>  (298) 


>  <PLP.PLP>  (298) 


>  <PLP.ligand.clash>  (298) 


>  <PLP.ligand.torsion>  (298) 


>  <PLP.part.buried>  (298) 


>  <PLP.part.hbond>  (298) 


>  <PLP.part.metal>  (298) 


>  <PLP.part.nonpolar>  (298) 


>  <PLP.part.repulsive>  (298) 


>  <RMSD>  (298) 
0.428070490903

>  <Torsion>  (298) 
152.444048788

>  <TorsionO>  (298) 
39.0580871276

>  <TorsionR>  (298) 
168.497864085

>  <Version>  (298) 


>  <product>  (298) 
61|Compound_24|Compounds_3D_F|sdf|10|dock8|1

>  <rmsd>  (298) 
-1

$$$$
974|750794_1404|Aromatic_primary_amines_F|sdf|194|dock3|1
     RDKit          3D

 14 14  0  0  0  0  0  0  0  0999 V2000
  -13.6355  -18.1936    9.4145 C   0  0  0  0  0  0  0  0  0  0  0  0
  -13.2544  -19.4497   10.1732 C   0  0  0  0  0  0  0  0  0  0  0  0
  -11.8731  -19.3506   10.5383 O   0  0  0  0  0  0  0  0  0  0  0  0
  -11.6148  -18.5085   11.5823 C   0  0  0  0  0  0  0  0  0  0  0  0
  -12.3947  -18.2810   12.5004 O   0  0  0  0  0  0  0  0  0  0  0  0
  -10.3031  -17.8985   11.4902 C   0  0  0  0  0  0  0  0  0  0  0  0
   -9.1673  -18.4974   10.9931 C   0  0  0  0  0  0  0  0  0  0  0  0
   -8.1448  -17.6055   11.0758 O   0  0  0  0  0  0  0  0  0  0  0  0
   -8.7110  -16.4917   11.6237 C   0  0  0  0  0  0  0  0  0  0  0  0
   -9.9933  -16.6110   11.8915 N   0  0  0  0  0  0  0  0  0  0  0  0
   -7.9611  -15.3718   11.8549 N   0  0  0  0  0  0  0  0  0  0  0  0
   -8.5046  -14.1249   12.0676 C   0  0  0  0  0  0  0  0  0  0  0  0
   -9.6950  -13.8313   12.1035 O   0  0  0  0  0  0  0  0  0  0  0  0
   -7.4448  -13.0785   12.3021 C   0  0  0  0  0  0  0  0  0  0  0  0
  1  2  1  0
  2  3  1  0
  3  4  1  0
  4  5  2  0
  4  6  1  0
  6  7  2  0
  6 10  1  0
  7  8  1  0
  8  9  1  0
  9 10  2  0
  9 11  1  0
 11 12  1  0
 12 13  2  0
 12 14  1  0
M  END
>  <Gold.Gold.Protein.RotatedWaterAtoms>  (299) 


>  <Gold.Id.Protein>  (299) 


>  <Gold.PLP.Chemscore.CHOScore>  (299) 
0.0000

>  <Gold.PLP.Chemscore.Hbond>  (299) 
2.0000

>  <Gold.PLP.Chemscore.Internal.Correction>  (299) 
0.0053

>  <Gold.PLP.Chemscore.Metal>  (299) 
0.0000

>  <Gold.PLP.Fitness>  (299) 
36.8047

>  <Gold.PLP.PLP>  (299) 
-32.7996

>  <Gold.PLP.ligand.clash>  (299) 
0.0000

>  <Gold.PLP.ligand.torsion>  (299) 
1.0001

>  <Gold.PLP.part.buried>  (299) 
-6.5206

>  <Gold.PLP.part.hbond>  (299) 
-2.9156

>  <Gold.PLP.part.metal>  (299) 
0.0000

>  <Gold.PLP.part.nonpolar>  (299) 
-23.4080

>  <Gold.PLP.part.repulsive>  (299) 
0.3100

>  <Gold.Protein.RotatedAtoms>  (299) 


>  <Gold.Protein.RotatedTorsions>  (299) 


>  <Gold.Protein.RotatedWaterAtoms>  (299) 


>  <Gold.Version>  (299) 
5.3.0

>  <PLP.Chemscore.CHOScore>  (299) 


>  <PLP.Chemscore.Hbond>  (299) 


>  <PLP.Chemscore.Internal.Correction>  (299) 


>  <PLP.Chemscore.Metal>  (299) 


>  <PLP.Fitness>  (299) 


>  <PLP.PLP>  (299) 


>  <PLP.ligand.clash>  (299) 


>  <PLP.ligand.torsion>  (299) 


>  <PLP.part.buried>  (299) 


>  <PLP.part.hbond>  (299) 


>  <PLP.part.metal>  (299) 


>  <PLP.part.nonpolar>  (299) 


>  <PLP.part.repulsive>  (299) 


>  <RMSD>  (299) 
0.499949349045

>  <Torsion>  (299) 
159.973716791

>  <TorsionO>  (299) 
19.1052109979

>  <TorsionR>  (299) 
179.078927789

>  <Version>  (299) 


>  <product>  (299) 
61|Compound_24|Compounds_3D_F|sdf|10|dock8|1

>  <rmsd>  (299) 
-1

$$$$
1884|M3006_1781|Aromatic_primary_amines_F|sdf|361|dock3|1
     RDKit          3D

 31 34  0  0  0  0  0  0  0  0999 V2000
  -14.4210  -19.8971    8.7934 C   0  0  0  0  0  0  0  0  0  0  0  0
  -13.9762  -19.4927   10.1894 C   0  0  0  0  0  0  0  0  0  0  0  0
  -14.1356  -20.6409   11.1817 C   0  0  0  0  0  0  0  0  0  0  0  0
  -13.5197  -20.3070   12.5189 C   0  0  0  0  0  0  0  0  0  0  0  0
  -12.9307  -19.2724   12.7954 O   0  0  0  0  0  0  0  0  0  0  0  0
  -13.7110  -21.3451   13.3845 O   0  0  0  0  0  0  0  0  0  0  0  0
  -12.9425  -21.2698   14.5900 C   0  0  0  0  0  0  0  0  0  0  0  0
  -12.8849  -22.6189   15.2889 C   0  0  0  0  0  0  0  0  0  0  0  0
  -11.6552  -22.4172   16.1494 C   0  0  0  0  0  0  0  0  0  0  0  0
  -11.2420  -23.7410   16.7624 C   0  0  0  0  0  0  0  0  0  0  0  0
  -12.3024  -24.2223   17.5862 O   0  0  0  0  0  0  0  0  0  0  0  0
  -13.7888  -24.3384   16.9603 P   0  0  0  0  0  0  0  0  0  0  0  0
  -14.8775  -24.6795   17.9243 O   0  0  0  0  0  0  0  0  0  0  0  0
  -13.9839  -22.9641   16.1174 O   0  0  0  0  0  0  0  0  0  0  0  0
  -13.5991  -25.4435   15.8075 O   0  0  0  0  0  0  0  0  0  0  0  0
  -10.6922  -21.8161   15.2889 O   0  0  0  0  0  0  0  0  0  0  0  0
  -11.4338  -20.9664   14.3653 C   0  0  0  0  0  0  0  0  0  0  0  0
  -10.9052  -21.2017   13.0342 N   0  0  0  0  0  0  0  0  0  0  0  0
  -10.7814  -22.4114   12.4013 C   0  0  0  0  0  0  0  0  0  0  0  0
  -10.2640  -22.2918   11.1953 N   0  0  0  0  0  0  0  0  0  0  0  0
  -10.0274  -20.9476   11.0424 C   0  0  0  0  0  0  0  0  0  0  0  0
  -10.4203  -20.2487   12.1733 C   0  0  0  0  0  0  0  0  0  0  0  0
  -10.3338  -18.9216   12.3641 N   0  0  0  0  0  0  0  0  0  0  0  0
   -9.8057  -18.2730   11.3024 C   0  0  0  0  0  0  0  0  0  0  0  0
   -9.3808  -18.8370   10.1545 N   0  0  0  0  0  0  0  0  0  0  0  0
   -9.4895  -20.1691   10.0244 C   0  0  0  0  0  0  0  0  0  0  0  0
   -9.0330  -20.6622    8.8349 O   0  0  0  0  0  0  0  0  0  0  0  0
   -9.7222  -16.8901   11.4793 N   0  0  0  0  0  0  0  0  0  0  0  0
   -8.5796  -16.1798   11.7761 C   0  0  0  0  0  0  0  0  0  0  0  0
   -7.4445  -16.6221   11.9131 O   0  0  0  0  0  0  0  0  0  0  0  0
   -8.8524  -14.7024   11.8973 C   0  0  0  0  0  0  0  0  0  0  0  0
  1  2  1  0
  2  3  1  0
  3  4  1  0
  4  5  2  0
  4  6  1  0
  6  7  1  0
  7  8  1  0
  7 17  1  0
  8  9  1  0
  8 14  1  0
  9 10  1  0
  9 16  1  0
 10 11  1  0
 11 12  1  0
 12 13  2  0
 12 14  1  0
 12 15  1  0
 16 17  1  0
 17 18  1  0
 18 19  1  0
 18 22  1  0
 19 20  2  0
 20 21  1  0
 21 22  2  0
 21 26  1  0
 22 23  1  0
 23 24  2  0
 24 25  1  0
 24 28  1  0
 25 26  2  0
 26 27  1  0
 28 29  1  0
 29 30  2  0
 29 31  1  0
M  END
>  <Gold.Gold.Protein.RotatedWaterAtoms>  (300) 


>  <Gold.Id.Protein>  (300) 


>  <Gold.PLP.Chemscore.CHOScore>  (300) 
0.0000

>  <Gold.PLP.Chemscore.Hbond>  (300) 
1.2080

>  <Gold.PLP.Chemscore.Internal.Correction>  (300) 
0.1232

>  <Gold.PLP.Chemscore.Metal>  (300) 
0.0000

>  <Gold.PLP.Fitness>  (300) 
47.7145

>  <Gold.PLP.PLP>  (300) 
-46.0218

>  <Gold.PLP.ligand.clash>  (300) 
0.0000

>  <Gold.PLP.ligand.torsion>  (300) 
1.0272

>  <Gold.PLP.part.buried>  (300) 
-2.2958

>  <Gold.PLP.part.hbond>  (300) 
-4.0214

>  <Gold.PLP.part.metal>  (300) 
0.0000

>  <Gold.PLP.part.nonpolar>  (300) 
-41.4699

>  <Gold.PLP.part.repulsive>  (300) 
0.9524

>  <Gold.Protein.RotatedAtoms>  (300) 


>  <Gold.Protein.RotatedTorsions>  (300) 


>  <Gold.Protein.RotatedWaterAtoms>  (300) 


>  <Gold.Version>  (300) 
5.3.0

>  <PLP.Chemscore.CHOScore>  (300) 


>  <PLP.Chemscore.Hbond>  (300) 


>  <PLP.Chemscore.Internal.Correction>  (300) 


>  <PLP.Chemscore.Metal>  (300) 


>  <PLP.Fitness>  (300) 


>  <PLP.PLP>  (300) 


>  <PLP.ligand.clash>  (300) 


>  <PLP.ligand.torsion>  (300) 


>  <PLP.part.buried>  (300) 


>  <PLP.part.hbond>  (300) 


>  <PLP.part.metal>  (300) 


>  <PLP.part.nonpolar>  (300) 


>  <PLP.part.repulsive>  (300) 


>  <RMSD>  (300) 
0.291955871297

>  <Torsion>  (300) 
171.923704933

>  <TorsionO>  (300) 
6.03609353985

>  <TorsionR>  (300) 
177.959798473

>  <Version>  (300) 


>  <product>  (300) 
61|Compound_24|Compounds_3D_F|sdf|10|dock8|1

>  <rmsd>  (300) 
-1

$$$$
193|32168_281|Aromatic_primary_amines_F|sdf|39|dock6|1
     RDKit          3D

 23 25  0  0  0  0  0  0  0  0999 V2000
   -7.8439  -12.1461   11.8919 C   0  0  0  0  0  0  0  0  0  0  0  0
   -8.5691  -13.4472   11.6781 C   0  0  0  0  0  0  0  0  0  0  0  0
   -9.7886  -13.4981   11.5208 O   0  0  0  0  0  0  0  0  0  0  0  0
   -7.7264  -14.5390   11.7020 N   0  0  0  0  0  0  0  0  0  0  0  0
   -8.1889  -15.8197   11.5323 C   0  0  0  0  0  0  0  0  0  0  0  0
   -9.4747  -16.2039   11.8163 N   0  0  0  0  0  0  0  0  0  0  0  0
   -9.5964  -17.5375   11.5379 C   0  0  0  0  0  0  0  0  0  0  0  0
  -10.6643  -18.4283   11.6415 C   0  0  0  0  0  0  0  0  0  0  0  0
  -10.4051  -19.7586   11.2778 C   0  0  0  0  0  0  0  0  0  0  0  0
   -9.1530  -20.1507   10.7795 C   0  0  0  0  0  0  0  0  0  0  0  0
   -8.1017  -19.2294   10.6839 C   0  0  0  0  0  0  0  0  0  0  0  0
   -8.3349  -17.9032   11.0783 C   0  0  0  0  0  0  0  0  0  0  0  0
   -7.4773  -16.8281   11.0838 N   0  0  0  0  0  0  0  0  0  0  0  0
   -8.8530  -21.7658   10.2429 Cl  0  0  0  0  0  0  0  0  0  0  0  0
  -11.4669  -20.6323   11.3734 O   0  0  0  0  0  0  0  0  0  0  0  0
  -12.5262  -20.4408   10.5053 C   0  0  0  0  0  0  0  0  0  0  0  0
  -13.3188  -19.2846   10.5304 C   0  0  0  0  0  0  0  0  0  0  0  0
  -14.3665  -19.1344    9.6224 C   0  0  0  0  0  0  0  0  0  0  0  0
  -14.6219  -20.1279    8.6796 C   0  0  0  0  0  0  0  0  0  0  0  0
  -13.8238  -21.2756    8.6345 C   0  0  0  0  0  0  0  0  0  0  0  0
  -12.7674  -21.4342    9.5416 C   0  0  0  0  0  0  0  0  0  0  0  0
  -11.7588  -22.8458    9.4996 Cl  0  0  0  0  0  0  0  0  0  0  0  0
  -14.1988  -22.4584    7.4296 Cl  0  0  0  0  0  0  0  0  0  0  0  0
  1  2  1  0
  2  3  2  0
  2  4  1  0
  4  5  1  0
  5  6  1  0
  5 13  2  0
  6  7  1  0
  7  8  2  0
  7 12  1  0
  8  9  1  0
  9 10  2  0
  9 15  1  0
 10 11  1  0
 10 14  1  0
 11 12  2  0
 12 13  1  0
 15 16  1  0
 16 17  2  0
 16 21  1  0
 17 18  1  0
 18 19  2  0
 19 20  1  0
 20 21  2  0
 20 23  1  0
 21 22  1  0
M  END
>  <Gold.Gold.Protein.RotatedWaterAtoms>  (301) 


>  <Gold.Id.Protein>  (301) 


>  <Gold.PLP.Chemscore.CHOScore>  (301) 
0.0000

>  <Gold.PLP.Chemscore.Hbond>  (301) 
1.0000

>  <Gold.PLP.Chemscore.Internal.Correction>  (301) 
0.0086

>  <Gold.PLP.Chemscore.Metal>  (301) 
0.0000

>  <Gold.PLP.Fitness>  (301) 
50.7139

>  <Gold.PLP.PLP>  (301) 
-48.1706

>  <Gold.PLP.ligand.clash>  (301) 
0.0000

>  <Gold.PLP.ligand.torsion>  (301) 
0.2327

>  <Gold.PLP.part.buried>  (301) 
-6.5205

>  <Gold.PLP.part.hbond>  (301) 
-2.0000

>  <Gold.PLP.part.metal>  (301) 
0.0000

>  <Gold.PLP.part.nonpolar>  (301) 
-39.3857

>  <Gold.PLP.part.repulsive>  (301) 
0.3298

>  <Gold.Protein.RotatedAtoms>  (301) 


>  <Gold.Protein.RotatedTorsions>  (301) 


>  <Gold.Protein.RotatedWaterAtoms>  (301) 


>  <Gold.Version>  (301) 
5.3.0

>  <PLP.Chemscore.CHOScore>  (301) 


>  <PLP.Chemscore.Hbond>  (301) 


>  <PLP.Chemscore.Internal.Correction>  (301) 


>  <PLP.Chemscore.Metal>  (301) 


>  <PLP.Fitness>  (301) 


>  <PLP.PLP>  (301) 


>  <PLP.ligand.clash>  (301) 


>  <PLP.ligand.torsion>  (301) 


>  <PLP.part.buried>  (301) 


>  <PLP.part.hbond>  (301) 


>  <PLP.part.metal>  (301) 


>  <PLP.part.nonpolar>  (301) 


>  <PLP.part.repulsive>  (301) 


>  <RMSD>  (301) 
0.439733510035

>  <Torsion>  (301) 
177.672185574

>  <TorsionO>  (301) 
4.31728583372

>  <TorsionR>  (301) 
173.35489974

>  <Version>  (301) 


>  <product>  (301) 
61|Compound_24|Compounds_3D_F|sdf|10|dock8|1

>  <rmsd>  (301) 
-1

$$$$
8|Compound_6|Compounds_3D_F|sdf|3|dock2|1
     RDKit          3D

 11 10  0  0  0  0  0  0  0  0999 V2000
   -8.1932  -16.3415    7.5303 B   0  0  0  0  0  0  0  0  0  0  0  0
   -7.9346  -16.0832    9.0568 C   0  0  0  0  0  0  0  0  0  0  0  0
   -7.3708  -16.9215    9.7273 O   0  0  0  0  0  0  0  0  0  0  0  0
   -8.3399  -14.9286    9.6228 N   0  0  0  0  0  0  0  0  0  0  0  0
   -8.0987  -14.6877   11.0479 C   0  0  0  0  0  0  0  0  0  0  0  0
   -8.6430  -13.3350   11.4276 C   0  0  0  0  0  0  0  0  0  0  0  0
   -9.8259  -13.1105   11.3306 O   0  0  0  0  0  0  0  0  0  0  0  0
   -7.8128  -12.3782   11.8744 O   0  0  0  0  0  0  0  0  0  0  0  0
   -8.1839  -11.0017   11.5980 C   0  0  0  0  0  0  0  0  0  0  0  0
   -8.7978  -15.7691   11.8733 C   0  0  0  0  0  0  0  0  0  0  0  0
   -6.5946  -14.7275   11.3245 C   0  0  0  0  0  0  0  0  0  0  0  0
  1  2  1  0
  2  3  2  0
  2  4  1  0
  4  5  1  0
  5  6  1  0
  5 10  1  0
  5 11  1  0
  6  7  2  0
  6  8  1  0
  8  9  1  0
M  END
>  <Gold.Gold.Protein.RotatedWaterAtoms>  (302) 


>  <Gold.Id.Protein>  (302) 


>  <Gold.PLP.Chemscore.CHOScore>  (302) 
0.0000

>  <Gold.PLP.Chemscore.Hbond>  (302) 
2.0000

>  <Gold.PLP.Chemscore.Internal.Correction>  (302) 
0.0005

>  <Gold.PLP.Chemscore.Metal>  (302) 
0.0000

>  <Gold.PLP.Fitness>  (302) 
30.7227

>  <Gold.PLP.PLP>  (302) 
-25.5106

>  <Gold.PLP.ligand.clash>  (302) 
0.0000

>  <Gold.PLP.ligand.torsion>  (302) 
0.3942

>  <Gold.PLP.part.buried>  (302) 
-3.5408

>  <Gold.PLP.part.hbond>  (302) 
-2.0000

>  <Gold.PLP.part.metal>  (302) 
0.0000

>  <Gold.PLP.part.nonpolar>  (302) 
-19.6688

>  <Gold.PLP.part.repulsive>  (302) 
0.3722

>  <Gold.Protein.RotatedAtoms>  (302) 


>  <Gold.Protein.RotatedTorsions>  (302) 


>  <Gold.Protein.RotatedWaterAtoms>  (302) 


>  <Gold.Version>  (302) 
5.3.0

>  <PLP.Chemscore.CHOScore>  (302) 


>  <PLP.Chemscore.Hbond>  (302) 


>  <PLP.Chemscore.Internal.Correction>  (302) 


>  <PLP.Chemscore.Metal>  (302) 


>  <PLP.Fitness>  (302) 


>  <PLP.PLP>  (302) 


>  <PLP.ligand.clash>  (302) 


>  <PLP.ligand.torsion>  (302) 


>  <PLP.part.buried>  (302) 


>  <PLP.part.hbond>  (302) 


>  <PLP.part.metal>  (302) 


>  <PLP.part.nonpolar>  (302) 


>  <PLP.part.repulsive>  (302) 


>  <Version>  (302) 


$$$$
94|664022_40|Aromatic_carboxylic_acids_F|sdf|24|dock1|1
     RDKit          3D

 12 12  0  0  0  0  0  0  0  0999 V2000
   -8.2596  -17.1212   11.4595 C   0  0  0  0  0  0  0  0  0  0  0  0
   -7.6366  -15.8367   11.6688 N   0  0  0  0  0  0  0  0  0  0  0  0
   -8.3409  -14.6553   11.5719 C   0  0  0  0  0  0  0  0  0  0  0  0
   -9.5296  -14.5547   11.2978 O   0  0  0  0  0  0  0  0  0  0  0  0
   -7.5420  -13.4431   11.8503 C   0  0  0  0  0  0  0  0  0  0  0  0
   -8.1627  -12.1983   11.6738 C   0  0  0  0  0  0  0  0  0  0  0  0
   -7.4390  -11.0301   11.9055 C   0  0  0  0  0  0  0  0  0  0  0  0
   -6.1069  -11.0910   12.3103 C   0  0  0  0  0  0  0  0  0  0  0  0
   -5.4897  -12.3324   12.4853 C   0  0  0  0  0  0  0  0  0  0  0  0
   -6.2035  -13.5136   12.2549 C   0  0  0  0  0  0  0  0  0  0  0  0
   -5.3062  -15.1564   12.5638 Br  0  0  0  0  0  0  0  0  0  0  0  0
   -8.1960   -9.5005   11.6887 Cl  0  0  0  0  0  0  0  0  0  0  0  0
  1  2  1  0
  2  3  1  0
  3  4  2  0
  3  5  1  0
  5  6  2  0
  5 10  1  0
  6  7  1  0
  7  8  2  0
  7 12  1  0
  8  9  1  0
  9 10  2  0
 10 11  1  0
M  END
>  <Gold.Gold.Protein.RotatedWaterAtoms>  (303) 


>  <Gold.Id.Protein>  (303) 


>  <Gold.PLP.Chemscore.CHOScore>  (303) 
0.0000

>  <Gold.PLP.Chemscore.Hbond>  (303) 
0.4160

>  <Gold.PLP.Chemscore.Internal.Correction>  (303) 
0.0004

>  <Gold.PLP.Chemscore.Metal>  (303) 
0.0000

>  <Gold.PLP.Fitness>  (303) 
48.9046

>  <Gold.PLP.PLP>  (303) 
-47.6744

>  <Gold.PLP.ligand.clash>  (303) 
0.0000

>  <Gold.PLP.ligand.torsion>  (303) 
0.0091

>  <Gold.PLP.part.buried>  (303) 
-7.3578

>  <Gold.PLP.part.hbond>  (303) 
-0.5127

>  <Gold.PLP.part.metal>  (303) 
0.0000

>  <Gold.PLP.part.nonpolar>  (303) 
-40.3098

>  <Gold.PLP.part.repulsive>  (303) 
0.1684

>  <Gold.Protein.RotatedAtoms>  (303) 


>  <Gold.Protein.RotatedTorsions>  (303) 


>  <Gold.Protein.RotatedWaterAtoms>  (303) 


>  <Gold.Version>  (303) 
5.3.0

>  <PLP.Chemscore.CHOScore>  (303) 


>  <PLP.Chemscore.Hbond>  (303) 


>  <PLP.Chemscore.Internal.Correction>  (303) 


>  <PLP.Chemscore.Metal>  (303) 


>  <PLP.Fitness>  (303) 


>  <PLP.PLP>  (303) 


>  <PLP.ligand.clash>  (303) 


>  <PLP.ligand.torsion>  (303) 


>  <PLP.part.buried>  (303) 


>  <PLP.part.hbond>  (303) 


>  <PLP.part.metal>  (303) 


>  <PLP.part.nonpolar>  (303) 


>  <PLP.part.repulsive>  (303) 


>  <RMSD>  (303) 
0.30972197429

>  <Torsion>  (303) 
172.929186758

>  <TorsionO>  (303) 
24.4968065243

>  <TorsionR>  (303) 
162.574006718

>  <Version>  (303) 


>  <product>  (303) 
8|Compound_6|Compounds_3D_F|sdf|3|dock2|1

>  <rmsd>  (303) 
-1

$$$$
110|565385_49|Aromatic_carboxylic_acids_F|sdf|29|dock1|1
     RDKit          3D

 13 13  0  0  0  0  0  0  0  0999 V2000
  -10.1118  -17.9021   11.6320 C   0  0  0  0  0  0  0  0  0  0  0  0
   -9.7537  -16.5043   11.6546 N   0  0  0  0  0  0  0  0  0  0  0  0
   -8.4330  -16.1187   11.7930 C   0  0  0  0  0  0  0  0  0  0  0  0
   -7.5159  -16.9298   11.9008 O   0  0  0  0  0  0  0  0  0  0  0  0
   -8.1234  -14.6552   11.8105 C   0  0  0  0  0  0  0  0  0  0  0  0
   -9.0636  -13.6551   11.5375 C   0  0  0  0  0  0  0  0  0  0  0  0
   -8.6966  -12.3009   11.5726 C   0  0  0  0  0  0  0  0  0  0  0  0
   -7.3879  -11.9195   11.8809 C   0  0  0  0  0  0  0  0  0  0  0  0
   -6.4486  -12.9235   12.1551 C   0  0  0  0  0  0  0  0  0  0  0  0
   -6.8098  -14.2750   12.1207 C   0  0  0  0  0  0  0  0  0  0  0  0
   -4.6444  -12.5025   12.5849 Br  0  0  0  0  0  0  0  0  0  0  0  0
   -6.9476  -10.6242   11.9372 O   0  0  0  0  0  0  0  0  0  0  0  0
   -7.9020   -9.5910   11.7256 C   0  0  0  0  0  0  0  0  0  0  0  0
  1  2  1  0
  2  3  1  0
  3  4  2  0
  3  5  1  0
  5  6  2  0
  5 10  1  0
  6  7  1  0
  7  8  2  0
  8  9  1  0
  8 12  1  0
  9 10  2  0
  9 11  1  0
 12 13  1  0
M  END
>  <Gold.Gold.Protein.RotatedWaterAtoms>  (304) 


>  <Gold.Id.Protein>  (304) 


>  <Gold.PLP.Chemscore.CHOScore>  (304) 
0.0000

>  <Gold.PLP.Chemscore.Hbond>  (304) 
1.0000

>  <Gold.PLP.Chemscore.Internal.Correction>  (304) 
0.0000

>  <Gold.PLP.Chemscore.Metal>  (304) 
0.0000

>  <Gold.PLP.Fitness>  (304) 
43.9775

>  <Gold.PLP.PLP>  (304) 
-41.0517

>  <Gold.PLP.ligand.clash>  (304) 
0.0000

>  <Gold.PLP.ligand.torsion>  (304) 
0.0371

>  <Gold.PLP.part.buried>  (304) 
-3.7367

>  <Gold.PLP.part.hbond>  (304) 
-1.0000

>  <Gold.PLP.part.metal>  (304) 
0.0000

>  <Gold.PLP.part.nonpolar>  (304) 
-36.7483

>  <Gold.PLP.part.repulsive>  (304) 
0.4054

>  <Gold.Protein.RotatedAtoms>  (304) 


>  <Gold.Protein.RotatedTorsions>  (304) 


>  <Gold.Protein.RotatedWaterAtoms>  (304) 


>  <Gold.Version>  (304) 
5.3.0

>  <PLP.Chemscore.CHOScore>  (304) 


>  <PLP.Chemscore.Hbond>  (304) 


>  <PLP.Chemscore.Internal.Correction>  (304) 


>  <PLP.Chemscore.Metal>  (304) 


>  <PLP.Fitness>  (304) 


>  <PLP.PLP>  (304) 


>  <PLP.ligand.clash>  (304) 


>  <PLP.ligand.torsion>  (304) 


>  <PLP.part.buried>  (304) 


>  <PLP.part.hbond>  (304) 


>  <PLP.part.metal>  (304) 


>  <PLP.part.nonpolar>  (304) 


>  <PLP.part.repulsive>  (304) 


>  <RMSD>  (304) 
0.319376411377

>  <Torsion>  (304) 
169.460450784

>  <TorsionO>  (304) 
9.7963905484

>  <TorsionR>  (304) 
179.256841332

>  <Version>  (304) 


>  <product>  (304) 
8|Compound_6|Compounds_3D_F|sdf|3|dock2|1

>  <rmsd>  (304) 
-1

$$$$
128|137677_56|Aromatic_carboxylic_acids_F|sdf|33|dock1|1
     RDKit          3D

 11 11  0  0  0  0  0  0  0  0999 V2000
   -8.6116  -16.1544   11.8887 C   0  0  0  0  0  0  0  0  0  0  0  0
   -7.9978  -14.8484   11.9215 N   0  0  0  0  0  0  0  0  0  0  0  0
   -8.7778  -13.7008   11.8756 C   0  0  0  0  0  0  0  0  0  0  0  0
  -10.0002  -13.7896   11.8139 O   0  0  0  0  0  0  0  0  0  0  0  0
   -8.0808  -12.3609   11.9017 C   0  0  0  0  0  0  0  0  0  0  0  0
   -8.7916  -11.1851   11.5813 C   0  0  0  0  0  0  0  0  0  0  0  0
   -8.1781   -9.9267   11.5989 C   0  0  0  0  0  0  0  0  0  0  0  0
   -6.8391   -9.8089   11.9369 C   0  0  0  0  0  0  0  0  0  0  0  0
   -6.1124  -10.9502   12.2575 C   0  0  0  0  0  0  0  0  0  0  0  0
   -6.7171  -12.2196   12.2428 C   0  0  0  0  0  0  0  0  0  0  0  0
   -5.5419  -13.6455   12.7121 Br  0  0  0  0  0  0  0  0  0  0  0  0
  1  2  1  0
  2  3  1  0
  3  4  2  0
  3  5  1  0
  5  6  2  0
  5 10  1  0
  6  7  1  0
  7  8  2  0
  8  9  1  0
  9 10  2  0
 10 11  1  0
M  END
>  <Gold.Gold.Protein.RotatedWaterAtoms>  (305) 


>  <Gold.Id.Protein>  (305) 


>  <Gold.PLP.Chemscore.CHOScore>  (305) 
0.0000

>  <Gold.PLP.Chemscore.Hbond>  (305) 
1.0000

>  <Gold.PLP.Chemscore.Internal.Correction>  (305) 
0.0000

>  <Gold.PLP.Chemscore.Metal>  (305) 
0.0000

>  <Gold.PLP.Fitness>  (305) 
45.2899

>  <Gold.PLP.PLP>  (305) 
-42.4444

>  <Gold.PLP.ligand.clash>  (305) 
0.0000

>  <Gold.PLP.ligand.torsion>  (305) 
0.0772

>  <Gold.PLP.part.buried>  (305) 
-6.4690

>  <Gold.PLP.part.hbond>  (305) 
-0.6863

>  <Gold.PLP.part.metal>  (305) 
0.0000

>  <Gold.PLP.part.nonpolar>  (305) 
-34.8280

>  <Gold.PLP.part.repulsive>  (305) 
0.1963

>  <Gold.Protein.RotatedAtoms>  (305) 


>  <Gold.Protein.RotatedTorsions>  (305) 


>  <Gold.Protein.RotatedWaterAtoms>  (305) 


>  <Gold.Version>  (305) 
5.3.0

>  <PLP.Chemscore.CHOScore>  (305) 


>  <PLP.Chemscore.Hbond>  (305) 


>  <PLP.Chemscore.Internal.Correction>  (305) 


>  <PLP.Chemscore.Metal>  (305) 


>  <PLP.Fitness>  (305) 


>  <PLP.PLP>  (305) 


>  <PLP.ligand.clash>  (305) 


>  <PLP.ligand.torsion>  (305) 


>  <PLP.part.buried>  (305) 


>  <PLP.part.hbond>  (305) 


>  <PLP.part.metal>  (305) 


>  <PLP.part.nonpolar>  (305) 


>  <PLP.part.repulsive>  (305) 


>  <RMSD>  (305) 
0.428070490903

>  <Torsion>  (305) 
152.444048788

>  <TorsionO>  (305) 
39.0580871276

>  <TorsionR>  (305) 
168.497864085

>  <Version>  (305) 


>  <product>  (305) 
8|Compound_6|Compounds_3D_F|sdf|3|dock2|1

>  <rmsd>  (305) 
-1

$$$$
974|750794_1404|Aromatic_primary_amines_F|sdf|194|dock3|1
     RDKit          3D

 14 14  0  0  0  0  0  0  0  0999 V2000
  -13.6355  -18.1936    9.4145 C   0  0  0  0  0  0  0  0  0  0  0  0
  -13.2544  -19.4497   10.1732 C   0  0  0  0  0  0  0  0  0  0  0  0
  -11.8731  -19.3506   10.5383 O   0  0  0  0  0  0  0  0  0  0  0  0
  -11.6148  -18.5085   11.5823 C   0  0  0  0  0  0  0  0  0  0  0  0
  -12.3947  -18.2810   12.5004 O   0  0  0  0  0  0  0  0  0  0  0  0
  -10.3031  -17.8985   11.4902 C   0  0  0  0  0  0  0  0  0  0  0  0
   -9.1673  -18.4974   10.9931 C   0  0  0  0  0  0  0  0  0  0  0  0
   -8.1448  -17.6055   11.0758 O   0  0  0  0  0  0  0  0  0  0  0  0
   -8.7110  -16.4917   11.6237 C   0  0  0  0  0  0  0  0  0  0  0  0
   -9.9933  -16.6110   11.8915 N   0  0  0  0  0  0  0  0  0  0  0  0
   -7.9611  -15.3718   11.8549 N   0  0  0  0  0  0  0  0  0  0  0  0
   -8.5046  -14.1249   12.0676 C   0  0  0  0  0  0  0  0  0  0  0  0
   -9.6950  -13.8313   12.1035 O   0  0  0  0  0  0  0  0  0  0  0  0
   -7.4448  -13.0785   12.3021 C   0  0  0  0  0  0  0  0  0  0  0  0
  1  2  1  0
  2  3  1  0
  3  4  1  0
  4  5  2  0
  4  6  1  0
  6  7  2  0
  6 10  1  0
  7  8  1  0
  8  9  1  0
  9 10  2  0
  9 11  1  0
 11 12  1  0
 12 13  2  0
 12 14  1  0
M  END
>  <Gold.Gold.Protein.RotatedWaterAtoms>  (306) 


>  <Gold.Id.Protein>  (306) 


>  <Gold.PLP.Chemscore.CHOScore>  (306) 
0.0000

>  <Gold.PLP.Chemscore.Hbond>  (306) 
2.0000

>  <Gold.PLP.Chemscore.Internal.Correction>  (306) 
0.0053

>  <Gold.PLP.Chemscore.Metal>  (306) 
0.0000

>  <Gold.PLP.Fitness>  (306) 
36.8047

>  <Gold.PLP.PLP>  (306) 
-32.7996

>  <Gold.PLP.ligand.clash>  (306) 
0.0000

>  <Gold.PLP.ligand.torsion>  (306) 
1.0001

>  <Gold.PLP.part.buried>  (306) 
-6.5206

>  <Gold.PLP.part.hbond>  (306) 
-2.9156

>  <Gold.PLP.part.metal>  (306) 
0.0000

>  <Gold.PLP.part.nonpolar>  (306) 
-23.4080

>  <Gold.PLP.part.repulsive>  (306) 
0.3100

>  <Gold.Protein.RotatedAtoms>  (306) 


>  <Gold.Protein.RotatedTorsions>  (306) 


>  <Gold.Protein.RotatedWaterAtoms>  (306) 


>  <Gold.Version>  (306) 
5.3.0

>  <PLP.Chemscore.CHOScore>  (306) 


>  <PLP.Chemscore.Hbond>  (306) 


>  <PLP.Chemscore.Internal.Correction>  (306) 


>  <PLP.Chemscore.Metal>  (306) 


>  <PLP.Fitness>  (306) 


>  <PLP.PLP>  (306) 


>  <PLP.ligand.clash>  (306) 


>  <PLP.ligand.torsion>  (306) 


>  <PLP.part.buried>  (306) 


>  <PLP.part.hbond>  (306) 


>  <PLP.part.metal>  (306) 


>  <PLP.part.nonpolar>  (306) 


>  <PLP.part.repulsive>  (306) 


>  <RMSD>  (306) 
0.499949349045

>  <Torsion>  (306) 
159.973716791

>  <TorsionO>  (306) 
19.1052109979

>  <TorsionR>  (306) 
179.078927789

>  <Version>  (306) 


>  <product>  (306) 
8|Compound_6|Compounds_3D_F|sdf|3|dock2|1

>  <rmsd>  (306) 
-1

$$$$
1884|M3006_1781|Aromatic_primary_amines_F|sdf|361|dock3|1
     RDKit          3D

 31 34  0  0  0  0  0  0  0  0999 V2000
  -14.4210  -19.8971    8.7934 C   0  0  0  0  0  0  0  0  0  0  0  0
  -13.9762  -19.4927   10.1894 C   0  0  0  0  0  0  0  0  0  0  0  0
  -14.1356  -20.6409   11.1817 C   0  0  0  0  0  0  0  0  0  0  0  0
  -13.5197  -20.3070   12.5189 C   0  0  0  0  0  0  0  0  0  0  0  0
  -12.9307  -19.2724   12.7954 O   0  0  0  0  0  0  0  0  0  0  0  0
  -13.7110  -21.3451   13.3845 O   0  0  0  0  0  0  0  0  0  0  0  0
  -12.9425  -21.2698   14.5900 C   0  0  0  0  0  0  0  0  0  0  0  0
  -12.8849  -22.6189   15.2889 C   0  0  0  0  0  0  0  0  0  0  0  0
  -11.6552  -22.4172   16.1494 C   0  0  0  0  0  0  0  0  0  0  0  0
  -11.2420  -23.7410   16.7624 C   0  0  0  0  0  0  0  0  0  0  0  0
  -12.3024  -24.2223   17.5862 O   0  0  0  0  0  0  0  0  0  0  0  0
  -13.7888  -24.3384   16.9603 P   0  0  0  0  0  0  0  0  0  0  0  0
  -14.8775  -24.6795   17.9243 O   0  0  0  0  0  0  0  0  0  0  0  0
  -13.9839  -22.9641   16.1174 O   0  0  0  0  0  0  0  0  0  0  0  0
  -13.5991  -25.4435   15.8075 O   0  0  0  0  0  0  0  0  0  0  0  0
  -10.6922  -21.8161   15.2889 O   0  0  0  0  0  0  0  0  0  0  0  0
  -11.4338  -20.9664   14.3653 C   0  0  0  0  0  0  0  0  0  0  0  0
  -10.9052  -21.2017   13.0342 N   0  0  0  0  0  0  0  0  0  0  0  0
  -10.7814  -22.4114   12.4013 C   0  0  0  0  0  0  0  0  0  0  0  0
  -10.2640  -22.2918   11.1953 N   0  0  0  0  0  0  0  0  0  0  0  0
  -10.0274  -20.9476   11.0424 C   0  0  0  0  0  0  0  0  0  0  0  0
  -10.4203  -20.2487   12.1733 C   0  0  0  0  0  0  0  0  0  0  0  0
  -10.3338  -18.9216   12.3641 N   0  0  0  0  0  0  0  0  0  0  0  0
   -9.8057  -18.2730   11.3024 C   0  0  0  0  0  0  0  0  0  0  0  0
   -9.3808  -18.8370   10.1545 N   0  0  0  0  0  0  0  0  0  0  0  0
   -9.4895  -20.1691   10.0244 C   0  0  0  0  0  0  0  0  0  0  0  0
   -9.0330  -20.6622    8.8349 O   0  0  0  0  0  0  0  0  0  0  0  0
   -9.7222  -16.8901   11.4793 N   0  0  0  0  0  0  0  0  0  0  0  0
   -8.5796  -16.1798   11.7761 C   0  0  0  0  0  0  0  0  0  0  0  0
   -7.4445  -16.6221   11.9131 O   0  0  0  0  0  0  0  0  0  0  0  0
   -8.8524  -14.7024   11.8973 C   0  0  0  0  0  0  0  0  0  0  0  0
  1  2  1  0
  2  3  1  0
  3  4  1  0
  4  5  2  0
  4  6  1  0
  6  7  1  0
  7  8  1  0
  7 17  1  0
  8  9  1  0
  8 14  1  0
  9 10  1  0
  9 16  1  0
 10 11  1  0
 11 12  1  0
 12 13  2  0
 12 14  1  0
 12 15  1  0
 16 17  1  0
 17 18  1  0
 18 19  1  0
 18 22  1  0
 19 20  2  0
 20 21  1  0
 21 22  2  0
 21 26  1  0
 22 23  1  0
 23 24  2  0
 24 25  1  0
 24 28  1  0
 25 26  2  0
 26 27  1  0
 28 29  1  0
 29 30  2  0
 29 31  1  0
M  END
>  <Gold.Gold.Protein.RotatedWaterAtoms>  (307) 


>  <Gold.Id.Protein>  (307) 


>  <Gold.PLP.Chemscore.CHOScore>  (307) 
0.0000

>  <Gold.PLP.Chemscore.Hbond>  (307) 
1.2080

>  <Gold.PLP.Chemscore.Internal.Correction>  (307) 
0.1232

>  <Gold.PLP.Chemscore.Metal>  (307) 
0.0000

>  <Gold.PLP.Fitness>  (307) 
47.7145

>  <Gold.PLP.PLP>  (307) 
-46.0218

>  <Gold.PLP.ligand.clash>  (307) 
0.0000

>  <Gold.PLP.ligand.torsion>  (307) 
1.0272

>  <Gold.PLP.part.buried>  (307) 
-2.2958

>  <Gold.PLP.part.hbond>  (307) 
-4.0214

>  <Gold.PLP.part.metal>  (307) 
0.0000

>  <Gold.PLP.part.nonpolar>  (307) 
-41.4699

>  <Gold.PLP.part.repulsive>  (307) 
0.9524

>  <Gold.Protein.RotatedAtoms>  (307) 


>  <Gold.Protein.RotatedTorsions>  (307) 


>  <Gold.Protein.RotatedWaterAtoms>  (307) 


>  <Gold.Version>  (307) 
5.3.0

>  <PLP.Chemscore.CHOScore>  (307) 


>  <PLP.Chemscore.Hbond>  (307) 


>  <PLP.Chemscore.Internal.Correction>  (307) 


>  <PLP.Chemscore.Metal>  (307) 


>  <PLP.Fitness>  (307) 


>  <PLP.PLP>  (307) 


>  <PLP.ligand.clash>  (307) 


>  <PLP.ligand.torsion>  (307) 


>  <PLP.part.buried>  (307) 


>  <PLP.part.hbond>  (307) 


>  <PLP.part.metal>  (307) 


>  <PLP.part.nonpolar>  (307) 


>  <PLP.part.repulsive>  (307) 


>  <RMSD>  (307) 
0.291955871297

>  <Torsion>  (307) 
171.923704933

>  <TorsionO>  (307) 
6.03609353985

>  <TorsionR>  (307) 
177.959798473

>  <Version>  (307) 


>  <product>  (307) 
8|Compound_6|Compounds_3D_F|sdf|3|dock2|1

>  <rmsd>  (307) 
-1

$$$$
193|32168_281|Aromatic_primary_amines_F|sdf|39|dock6|1
     RDKit          3D

 23 25  0  0  0  0  0  0  0  0999 V2000
   -7.8439  -12.1461   11.8919 C   0  0  0  0  0  0  0  0  0  0  0  0
   -8.5691  -13.4472   11.6781 C   0  0  0  0  0  0  0  0  0  0  0  0
   -9.7886  -13.4981   11.5208 O   0  0  0  0  0  0  0  0  0  0  0  0
   -7.7264  -14.5390   11.7020 N   0  0  0  0  0  0  0  0  0  0  0  0
   -8.1889  -15.8197   11.5323 C   0  0  0  0  0  0  0  0  0  0  0  0
   -9.4747  -16.2039   11.8163 N   0  0  0  0  0  0  0  0  0  0  0  0
   -9.5964  -17.5375   11.5379 C   0  0  0  0  0  0  0  0  0  0  0  0
  -10.6643  -18.4283   11.6415 C   0  0  0  0  0  0  0  0  0  0  0  0
  -10.4051  -19.7586   11.2778 C   0  0  0  0  0  0  0  0  0  0  0  0
   -9.1530  -20.1507   10.7795 C   0  0  0  0  0  0  0  0  0  0  0  0
   -8.1017  -19.2294   10.6839 C   0  0  0  0  0  0  0  0  0  0  0  0
   -8.3349  -17.9032   11.0783 C   0  0  0  0  0  0  0  0  0  0  0  0
   -7.4773  -16.8281   11.0838 N   0  0  0  0  0  0  0  0  0  0  0  0
   -8.8530  -21.7658   10.2429 Cl  0  0  0  0  0  0  0  0  0  0  0  0
  -11.4669  -20.6323   11.3734 O   0  0  0  0  0  0  0  0  0  0  0  0
  -12.5262  -20.4408   10.5053 C   0  0  0  0  0  0  0  0  0  0  0  0
  -13.3188  -19.2846   10.5304 C   0  0  0  0  0  0  0  0  0  0  0  0
  -14.3665  -19.1344    9.6224 C   0  0  0  0  0  0  0  0  0  0  0  0
  -14.6219  -20.1279    8.6796 C   0  0  0  0  0  0  0  0  0  0  0  0
  -13.8238  -21.2756    8.6345 C   0  0  0  0  0  0  0  0  0  0  0  0
  -12.7674  -21.4342    9.5416 C   0  0  0  0  0  0  0  0  0  0  0  0
  -11.7588  -22.8458    9.4996 Cl  0  0  0  0  0  0  0  0  0  0  0  0
  -14.1988  -22.4584    7.4296 Cl  0  0  0  0  0  0  0  0  0  0  0  0
  1  2  1  0
  2  3  2  0
  2  4  1  0
  4  5  1  0
  5  6  1  0
  5 13  2  0
  6  7  1  0
  7  8  2  0
  7 12  1  0
  8  9  1  0
  9 10  2  0
  9 15  1  0
 10 11  1  0
 10 14  1  0
 11 12  2  0
 12 13  1  0
 15 16  1  0
 16 17  2  0
 16 21  1  0
 17 18  1  0
 18 19  2  0
 19 20  1  0
 20 21  2  0
 20 23  1  0
 21 22  1  0
M  END
>  <Gold.Gold.Protein.RotatedWaterAtoms>  (308) 


>  <Gold.Id.Protein>  (308) 


>  <Gold.PLP.Chemscore.CHOScore>  (308) 
0.0000

>  <Gold.PLP.Chemscore.Hbond>  (308) 
1.0000

>  <Gold.PLP.Chemscore.Internal.Correction>  (308) 
0.0086

>  <Gold.PLP.Chemscore.Metal>  (308) 
0.0000

>  <Gold.PLP.Fitness>  (308) 
50.7139

>  <Gold.PLP.PLP>  (308) 
-48.1706

>  <Gold.PLP.ligand.clash>  (308) 
0.0000

>  <Gold.PLP.ligand.torsion>  (308) 
0.2327

>  <Gold.PLP.part.buried>  (308) 
-6.5205

>  <Gold.PLP.part.hbond>  (308) 
-2.0000

>  <Gold.PLP.part.metal>  (308) 
0.0000

>  <Gold.PLP.part.nonpolar>  (308) 
-39.3857

>  <Gold.PLP.part.repulsive>  (308) 
0.3298

>  <Gold.Protein.RotatedAtoms>  (308) 


>  <Gold.Protein.RotatedTorsions>  (308) 


>  <Gold.Protein.RotatedWaterAtoms>  (308) 


>  <Gold.Version>  (308) 
5.3.0

>  <PLP.Chemscore.CHOScore>  (308) 


>  <PLP.Chemscore.Hbond>  (308) 


>  <PLP.Chemscore.Internal.Correction>  (308) 


>  <PLP.Chemscore.Metal>  (308) 


>  <PLP.Fitness>  (308) 


>  <PLP.PLP>  (308) 


>  <PLP.ligand.clash>  (308) 


>  <PLP.ligand.torsion>  (308) 


>  <PLP.part.buried>  (308) 


>  <PLP.part.hbond>  (308) 


>  <PLP.part.metal>  (308) 


>  <PLP.part.nonpolar>  (308) 


>  <PLP.part.repulsive>  (308) 


>  <RMSD>  (308) 
0.439733510035

>  <Torsion>  (308) 
177.672185574

>  <TorsionO>  (308) 
4.31728583372

>  <TorsionR>  (308) 
173.35489974

>  <Version>  (308) 


>  <product>  (308) 
8|Compound_6|Compounds_3D_F|sdf|3|dock2|1

>  <rmsd>  (308) 
-1

$$$$
88|Compound_32|Compounds_3D_F|sdf|14|dock5|1
     RDKit          3D

  9  9  0  0  0  0  0  0  0  0999 V2000
  -15.1720  -22.2296    7.4016 B   0  0  0  0  0  0  0  0  0  0  0  0
  -14.4413  -21.3542    8.4803 C   0  0  0  0  0  0  0  0  0  0  0  0
  -13.8637  -21.8863    9.4040 O   0  0  0  0  0  0  0  0  0  0  0  0
  -14.4562  -20.0099    8.3795 N   0  0  0  0  0  0  0  0  0  0  0  0
  -13.7742  -19.1927    9.3866 C   0  0  0  0  0  0  0  0  0  0  0  0
  -14.2081  -19.5213   10.8164 C   0  0  0  0  0  0  0  0  0  0  0  0
  -12.2467  -19.1236    9.2000 C   0  0  0  0  0  0  0  0  0  0  0  0
  -12.3895  -17.7175    9.4856 O   0  0  0  0  0  0  0  0  0  0  0  0
  -13.7727  -17.6866    9.0681 C   0  0  0  0  0  0  0  0  0  0  0  0
  1  2  1  0
  2  3  2  0
  2  4  1  0
  4  5  1  0
  5  6  1  0
  5  7  1  0
  5  9  1  0
  7  8  1  0
  8  9  1  0
M  END
>  <Gold.Gold.Protein.RotatedWaterAtoms>  (309) 


>  <Gold.Id.Protein>  (309) 


>  <Gold.PLP.Chemscore.CHOScore>  (309) 
0.0000

>  <Gold.PLP.Chemscore.Hbond>  (309) 
1.9199

>  <Gold.PLP.Chemscore.Internal.Correction>  (309) 
0.2523

>  <Gold.PLP.Chemscore.Metal>  (309) 
0.0000

>  <Gold.PLP.Fitness>  (309) 
29.9671

>  <Gold.PLP.PLP>  (309) 
-24.2809

>  <Gold.PLP.ligand.clash>  (309) 
0.0000

>  <Gold.PLP.ligand.torsion>  (309) 
0.1629

>  <Gold.PLP.part.buried>  (309) 
-3.0034

>  <Gold.PLP.part.hbond>  (309) 
-2.0000

>  <Gold.PLP.part.metal>  (309) 
0.0000

>  <Gold.PLP.part.nonpolar>  (309) 
-20.0337

>  <Gold.PLP.part.repulsive>  (309) 
0.2429

>  <Gold.Protein.RotatedAtoms>  (309) 


>  <Gold.Protein.RotatedTorsions>  (309) 


>  <Gold.Protein.RotatedWaterAtoms>  (309) 


>  <Gold.Version>  (309) 
5.3.0

>  <PLP.Chemscore.CHOScore>  (309) 


>  <PLP.Chemscore.Hbond>  (309) 


>  <PLP.Chemscore.Internal.Correction>  (309) 


>  <PLP.Chemscore.Metal>  (309) 


>  <PLP.Fitness>  (309) 


>  <PLP.PLP>  (309) 


>  <PLP.ligand.clash>  (309) 


>  <PLP.ligand.torsion>  (309) 


>  <PLP.part.buried>  (309) 


>  <PLP.part.hbond>  (309) 


>  <PLP.part.metal>  (309) 


>  <PLP.part.nonpolar>  (309) 


>  <PLP.part.repulsive>  (309) 


>  <Version>  (309) 


$$$$
94|664022_40|Aromatic_carboxylic_acids_F|sdf|24|dock1|1
     RDKit          3D

 12 12  0  0  0  0  0  0  0  0999 V2000
   -8.2596  -17.1212   11.4595 C   0  0  0  0  0  0  0  0  0  0  0  0
   -7.6366  -15.8367   11.6688 N   0  0  0  0  0  0  0  0  0  0  0  0
   -8.3409  -14.6553   11.5719 C   0  0  0  0  0  0  0  0  0  0  0  0
   -9.5296  -14.5547   11.2978 O   0  0  0  0  0  0  0  0  0  0  0  0
   -7.5420  -13.4431   11.8503 C   0  0  0  0  0  0  0  0  0  0  0  0
   -8.1627  -12.1983   11.6738 C   0  0  0  0  0  0  0  0  0  0  0  0
   -7.4390  -11.0301   11.9055 C   0  0  0  0  0  0  0  0  0  0  0  0
   -6.1069  -11.0910   12.3103 C   0  0  0  0  0  0  0  0  0  0  0  0
   -5.4897  -12.3324   12.4853 C   0  0  0  0  0  0  0  0  0  0  0  0
   -6.2035  -13.5136   12.2549 C   0  0  0  0  0  0  0  0  0  0  0  0
   -5.3062  -15.1564   12.5638 Br  0  0  0  0  0  0  0  0  0  0  0  0
   -8.1960   -9.5005   11.6887 Cl  0  0  0  0  0  0  0  0  0  0  0  0
  1  2  1  0
  2  3  1  0
  3  4  2  0
  3  5  1  0
  5  6  2  0
  5 10  1  0
  6  7  1  0
  7  8  2  0
  7 12  1  0
  8  9  1  0
  9 10  2  0
 10 11  1  0
M  END
>  <Gold.Gold.Protein.RotatedWaterAtoms>  (310) 


>  <Gold.Id.Protein>  (310) 


>  <Gold.PLP.Chemscore.CHOScore>  (310) 
0.0000

>  <Gold.PLP.Chemscore.Hbond>  (310) 
0.4160

>  <Gold.PLP.Chemscore.Internal.Correction>  (310) 
0.0004

>  <Gold.PLP.Chemscore.Metal>  (310) 
0.0000

>  <Gold.PLP.Fitness>  (310) 
48.9046

>  <Gold.PLP.PLP>  (310) 
-47.6744

>  <Gold.PLP.ligand.clash>  (310) 
0.0000

>  <Gold.PLP.ligand.torsion>  (310) 
0.0091

>  <Gold.PLP.part.buried>  (310) 
-7.3578

>  <Gold.PLP.part.hbond>  (310) 
-0.5127

>  <Gold.PLP.part.metal>  (310) 
0.0000

>  <Gold.PLP.part.nonpolar>  (310) 
-40.3098

>  <Gold.PLP.part.repulsive>  (310) 
0.1684

>  <Gold.Protein.RotatedAtoms>  (310) 


>  <Gold.Protein.RotatedTorsions>  (310) 


>  <Gold.Protein.RotatedWaterAtoms>  (310) 


>  <Gold.Version>  (310) 
5.3.0

>  <PLP.Chemscore.CHOScore>  (310) 


>  <PLP.Chemscore.Hbond>  (310) 


>  <PLP.Chemscore.Internal.Correction>  (310) 


>  <PLP.Chemscore.Metal>  (310) 


>  <PLP.Fitness>  (310) 


>  <PLP.PLP>  (310) 


>  <PLP.ligand.clash>  (310) 


>  <PLP.ligand.torsion>  (310) 


>  <PLP.part.buried>  (310) 


>  <PLP.part.hbond>  (310) 


>  <PLP.part.metal>  (310) 


>  <PLP.part.nonpolar>  (310) 


>  <PLP.part.repulsive>  (310) 


>  <RMSD>  (310) 
0.30972197429

>  <Torsion>  (310) 
172.929186758

>  <TorsionO>  (310) 
24.4968065243

>  <TorsionR>  (310) 
162.574006718

>  <Version>  (310) 


>  <product>  (310) 
88|Compound_32|Compounds_3D_F|sdf|14|dock5|1

>  <rmsd>  (310) 
-1

$$$$
110|565385_49|Aromatic_carboxylic_acids_F|sdf|29|dock1|1
     RDKit          3D

 13 13  0  0  0  0  0  0  0  0999 V2000
  -10.1118  -17.9021   11.6320 C   0  0  0  0  0  0  0  0  0  0  0  0
   -9.7537  -16.5043   11.6546 N   0  0  0  0  0  0  0  0  0  0  0  0
   -8.4330  -16.1187   11.7930 C   0  0  0  0  0  0  0  0  0  0  0  0
   -7.5159  -16.9298   11.9008 O   0  0  0  0  0  0  0  0  0  0  0  0
   -8.1234  -14.6552   11.8105 C   0  0  0  0  0  0  0  0  0  0  0  0
   -9.0636  -13.6551   11.5375 C   0  0  0  0  0  0  0  0  0  0  0  0
   -8.6966  -12.3009   11.5726 C   0  0  0  0  0  0  0  0  0  0  0  0
   -7.3879  -11.9195   11.8809 C   0  0  0  0  0  0  0  0  0  0  0  0
   -6.4486  -12.9235   12.1551 C   0  0  0  0  0  0  0  0  0  0  0  0
   -6.8098  -14.2750   12.1207 C   0  0  0  0  0  0  0  0  0  0  0  0
   -4.6444  -12.5025   12.5849 Br  0  0  0  0  0  0  0  0  0  0  0  0
   -6.9476  -10.6242   11.9372 O   0  0  0  0  0  0  0  0  0  0  0  0
   -7.9020   -9.5910   11.7256 C   0  0  0  0  0  0  0  0  0  0  0  0
  1  2  1  0
  2  3  1  0
  3  4  2  0
  3  5  1  0
  5  6  2  0
  5 10  1  0
  6  7  1  0
  7  8  2  0
  8  9  1  0
  8 12  1  0
  9 10  2  0
  9 11  1  0
 12 13  1  0
M  END
>  <Gold.Gold.Protein.RotatedWaterAtoms>  (311) 


>  <Gold.Id.Protein>  (311) 


>  <Gold.PLP.Chemscore.CHOScore>  (311) 
0.0000

>  <Gold.PLP.Chemscore.Hbond>  (311) 
1.0000

>  <Gold.PLP.Chemscore.Internal.Correction>  (311) 
0.0000

>  <Gold.PLP.Chemscore.Metal>  (311) 
0.0000

>  <Gold.PLP.Fitness>  (311) 
43.9775

>  <Gold.PLP.PLP>  (311) 
-41.0517

>  <Gold.PLP.ligand.clash>  (311) 
0.0000

>  <Gold.PLP.ligand.torsion>  (311) 
0.0371

>  <Gold.PLP.part.buried>  (311) 
-3.7367

>  <Gold.PLP.part.hbond>  (311) 
-1.0000

>  <Gold.PLP.part.metal>  (311) 
0.0000

>  <Gold.PLP.part.nonpolar>  (311) 
-36.7483

>  <Gold.PLP.part.repulsive>  (311) 
0.4054

>  <Gold.Protein.RotatedAtoms>  (311) 


>  <Gold.Protein.RotatedTorsions>  (311) 


>  <Gold.Protein.RotatedWaterAtoms>  (311) 


>  <Gold.Version>  (311) 
5.3.0

>  <PLP.Chemscore.CHOScore>  (311) 


>  <PLP.Chemscore.Hbond>  (311) 


>  <PLP.Chemscore.Internal.Correction>  (311) 


>  <PLP.Chemscore.Metal>  (311) 


>  <PLP.Fitness>  (311) 


>  <PLP.PLP>  (311) 


>  <PLP.ligand.clash>  (311) 


>  <PLP.ligand.torsion>  (311) 


>  <PLP.part.buried>  (311) 


>  <PLP.part.hbond>  (311) 


>  <PLP.part.metal>  (311) 


>  <PLP.part.nonpolar>  (311) 


>  <PLP.part.repulsive>  (311) 


>  <RMSD>  (311) 
0.319376411377

>  <Torsion>  (311) 
169.460450784

>  <TorsionO>  (311) 
9.7963905484

>  <TorsionR>  (311) 
179.256841332

>  <Version>  (311) 


>  <product>  (311) 
88|Compound_32|Compounds_3D_F|sdf|14|dock5|1

>  <rmsd>  (311) 
-1

$$$$
128|137677_56|Aromatic_carboxylic_acids_F|sdf|33|dock1|1
     RDKit          3D

 11 11  0  0  0  0  0  0  0  0999 V2000
   -8.6116  -16.1544   11.8887 C   0  0  0  0  0  0  0  0  0  0  0  0
   -7.9978  -14.8484   11.9215 N   0  0  0  0  0  0  0  0  0  0  0  0
   -8.7778  -13.7008   11.8756 C   0  0  0  0  0  0  0  0  0  0  0  0
  -10.0002  -13.7896   11.8139 O   0  0  0  0  0  0  0  0  0  0  0  0
   -8.0808  -12.3609   11.9017 C   0  0  0  0  0  0  0  0  0  0  0  0
   -8.7916  -11.1851   11.5813 C   0  0  0  0  0  0  0  0  0  0  0  0
   -8.1781   -9.9267   11.5989 C   0  0  0  0  0  0  0  0  0  0  0  0
   -6.8391   -9.8089   11.9369 C   0  0  0  0  0  0  0  0  0  0  0  0
   -6.1124  -10.9502   12.2575 C   0  0  0  0  0  0  0  0  0  0  0  0
   -6.7171  -12.2196   12.2428 C   0  0  0  0  0  0  0  0  0  0  0  0
   -5.5419  -13.6455   12.7121 Br  0  0  0  0  0  0  0  0  0  0  0  0
  1  2  1  0
  2  3  1  0
  3  4  2  0
  3  5  1  0
  5  6  2  0
  5 10  1  0
  6  7  1  0
  7  8  2  0
  8  9  1  0
  9 10  2  0
 10 11  1  0
M  END
>  <Gold.Gold.Protein.RotatedWaterAtoms>  (312) 


>  <Gold.Id.Protein>  (312) 


>  <Gold.PLP.Chemscore.CHOScore>  (312) 
0.0000

>  <Gold.PLP.Chemscore.Hbond>  (312) 
1.0000

>  <Gold.PLP.Chemscore.Internal.Correction>  (312) 
0.0000

>  <Gold.PLP.Chemscore.Metal>  (312) 
0.0000

>  <Gold.PLP.Fitness>  (312) 
45.2899

>  <Gold.PLP.PLP>  (312) 
-42.4444

>  <Gold.PLP.ligand.clash>  (312) 
0.0000

>  <Gold.PLP.ligand.torsion>  (312) 
0.0772

>  <Gold.PLP.part.buried>  (312) 
-6.4690

>  <Gold.PLP.part.hbond>  (312) 
-0.6863

>  <Gold.PLP.part.metal>  (312) 
0.0000

>  <Gold.PLP.part.nonpolar>  (312) 
-34.8280

>  <Gold.PLP.part.repulsive>  (312) 
0.1963

>  <Gold.Protein.RotatedAtoms>  (312) 


>  <Gold.Protein.RotatedTorsions>  (312) 


>  <Gold.Protein.RotatedWaterAtoms>  (312) 


>  <Gold.Version>  (312) 
5.3.0

>  <PLP.Chemscore.CHOScore>  (312) 


>  <PLP.Chemscore.Hbond>  (312) 


>  <PLP.Chemscore.Internal.Correction>  (312) 


>  <PLP.Chemscore.Metal>  (312) 


>  <PLP.Fitness>  (312) 


>  <PLP.PLP>  (312) 


>  <PLP.ligand.clash>  (312) 


>  <PLP.ligand.torsion>  (312) 


>  <PLP.part.buried>  (312) 


>  <PLP.part.hbond>  (312) 


>  <PLP.part.metal>  (312) 


>  <PLP.part.nonpolar>  (312) 


>  <PLP.part.repulsive>  (312) 


>  <RMSD>  (312) 
0.428070490903

>  <Torsion>  (312) 
152.444048788

>  <TorsionO>  (312) 
39.0580871276

>  <TorsionR>  (312) 
168.497864085

>  <Version>  (312) 


>  <product>  (312) 
88|Compound_32|Compounds_3D_F|sdf|14|dock5|1

>  <rmsd>  (312) 
-1

$$$$
974|750794_1404|Aromatic_primary_amines_F|sdf|194|dock3|1
     RDKit          3D

 14 14  0  0  0  0  0  0  0  0999 V2000
  -13.6355  -18.1936    9.4145 C   0  0  0  0  0  0  0  0  0  0  0  0
  -13.2544  -19.4497   10.1732 C   0  0  0  0  0  0  0  0  0  0  0  0
  -11.8731  -19.3506   10.5383 O   0  0  0  0  0  0  0  0  0  0  0  0
  -11.6148  -18.5085   11.5823 C   0  0  0  0  0  0  0  0  0  0  0  0
  -12.3947  -18.2810   12.5004 O   0  0  0  0  0  0  0  0  0  0  0  0
  -10.3031  -17.8985   11.4902 C   0  0  0  0  0  0  0  0  0  0  0  0
   -9.1673  -18.4974   10.9931 C   0  0  0  0  0  0  0  0  0  0  0  0
   -8.1448  -17.6055   11.0758 O   0  0  0  0  0  0  0  0  0  0  0  0
   -8.7110  -16.4917   11.6237 C   0  0  0  0  0  0  0  0  0  0  0  0
   -9.9933  -16.6110   11.8915 N   0  0  0  0  0  0  0  0  0  0  0  0
   -7.9611  -15.3718   11.8549 N   0  0  0  0  0  0  0  0  0  0  0  0
   -8.5046  -14.1249   12.0676 C   0  0  0  0  0  0  0  0  0  0  0  0
   -9.6950  -13.8313   12.1035 O   0  0  0  0  0  0  0  0  0  0  0  0
   -7.4448  -13.0785   12.3021 C   0  0  0  0  0  0  0  0  0  0  0  0
  1  2  1  0
  2  3  1  0
  3  4  1  0
  4  5  2  0
  4  6  1  0
  6  7  2  0
  6 10  1  0
  7  8  1  0
  8  9  1  0
  9 10  2  0
  9 11  1  0
 11 12  1  0
 12 13  2  0
 12 14  1  0
M  END
>  <Gold.Gold.Protein.RotatedWaterAtoms>  (313) 


>  <Gold.Id.Protein>  (313) 


>  <Gold.PLP.Chemscore.CHOScore>  (313) 
0.0000

>  <Gold.PLP.Chemscore.Hbond>  (313) 
2.0000

>  <Gold.PLP.Chemscore.Internal.Correction>  (313) 
0.0053

>  <Gold.PLP.Chemscore.Metal>  (313) 
0.0000

>  <Gold.PLP.Fitness>  (313) 
36.8047

>  <Gold.PLP.PLP>  (313) 
-32.7996

>  <Gold.PLP.ligand.clash>  (313) 
0.0000

>  <Gold.PLP.ligand.torsion>  (313) 
1.0001

>  <Gold.PLP.part.buried>  (313) 
-6.5206

>  <Gold.PLP.part.hbond>  (313) 
-2.9156

>  <Gold.PLP.part.metal>  (313) 
0.0000

>  <Gold.PLP.part.nonpolar>  (313) 
-23.4080

>  <Gold.PLP.part.repulsive>  (313) 
0.3100

>  <Gold.Protein.RotatedAtoms>  (313) 


>  <Gold.Protein.RotatedTorsions>  (313) 


>  <Gold.Protein.RotatedWaterAtoms>  (313) 


>  <Gold.Version>  (313) 
5.3.0

>  <PLP.Chemscore.CHOScore>  (313) 


>  <PLP.Chemscore.Hbond>  (313) 


>  <PLP.Chemscore.Internal.Correction>  (313) 


>  <PLP.Chemscore.Metal>  (313) 


>  <PLP.Fitness>  (313) 


>  <PLP.PLP>  (313) 


>  <PLP.ligand.clash>  (313) 


>  <PLP.ligand.torsion>  (313) 


>  <PLP.part.buried>  (313) 


>  <PLP.part.hbond>  (313) 


>  <PLP.part.metal>  (313) 


>  <PLP.part.nonpolar>  (313) 


>  <PLP.part.repulsive>  (313) 


>  <RMSD>  (313) 
0.499949349045

>  <Torsion>  (313) 
159.973716791

>  <TorsionO>  (313) 
19.1052109979

>  <TorsionR>  (313) 
179.078927789

>  <Version>  (313) 


>  <product>  (313) 
88|Compound_32|Compounds_3D_F|sdf|14|dock5|1

>  <rmsd>  (313) 
-1

$$$$
1884|M3006_1781|Aromatic_primary_amines_F|sdf|361|dock3|1
     RDKit          3D

 31 34  0  0  0  0  0  0  0  0999 V2000
  -14.4210  -19.8971    8.7934 C   0  0  0  0  0  0  0  0  0  0  0  0
  -13.9762  -19.4927   10.1894 C   0  0  0  0  0  0  0  0  0  0  0  0
  -14.1356  -20.6409   11.1817 C   0  0  0  0  0  0  0  0  0  0  0  0
  -13.5197  -20.3070   12.5189 C   0  0  0  0  0  0  0  0  0  0  0  0
  -12.9307  -19.2724   12.7954 O   0  0  0  0  0  0  0  0  0  0  0  0
  -13.7110  -21.3451   13.3845 O   0  0  0  0  0  0  0  0  0  0  0  0
  -12.9425  -21.2698   14.5900 C   0  0  0  0  0  0  0  0  0  0  0  0
  -12.8849  -22.6189   15.2889 C   0  0  0  0  0  0  0  0  0  0  0  0
  -11.6552  -22.4172   16.1494 C   0  0  0  0  0  0  0  0  0  0  0  0
  -11.2420  -23.7410   16.7624 C   0  0  0  0  0  0  0  0  0  0  0  0
  -12.3024  -24.2223   17.5862 O   0  0  0  0  0  0  0  0  0  0  0  0
  -13.7888  -24.3384   16.9603 P   0  0  0  0  0  0  0  0  0  0  0  0
  -14.8775  -24.6795   17.9243 O   0  0  0  0  0  0  0  0  0  0  0  0
  -13.9839  -22.9641   16.1174 O   0  0  0  0  0  0  0  0  0  0  0  0
  -13.5991  -25.4435   15.8075 O   0  0  0  0  0  0  0  0  0  0  0  0
  -10.6922  -21.8161   15.2889 O   0  0  0  0  0  0  0  0  0  0  0  0
  -11.4338  -20.9664   14.3653 C   0  0  0  0  0  0  0  0  0  0  0  0
  -10.9052  -21.2017   13.0342 N   0  0  0  0  0  0  0  0  0  0  0  0
  -10.7814  -22.4114   12.4013 C   0  0  0  0  0  0  0  0  0  0  0  0
  -10.2640  -22.2918   11.1953 N   0  0  0  0  0  0  0  0  0  0  0  0
  -10.0274  -20.9476   11.0424 C   0  0  0  0  0  0  0  0  0  0  0  0
  -10.4203  -20.2487   12.1733 C   0  0  0  0  0  0  0  0  0  0  0  0
  -10.3338  -18.9216   12.3641 N   0  0  0  0  0  0  0  0  0  0  0  0
   -9.8057  -18.2730   11.3024 C   0  0  0  0  0  0  0  0  0  0  0  0
   -9.3808  -18.8370   10.1545 N   0  0  0  0  0  0  0  0  0  0  0  0
   -9.4895  -20.1691   10.0244 C   0  0  0  0  0  0  0  0  0  0  0  0
   -9.0330  -20.6622    8.8349 O   0  0  0  0  0  0  0  0  0  0  0  0
   -9.7222  -16.8901   11.4793 N   0  0  0  0  0  0  0  0  0  0  0  0
   -8.5796  -16.1798   11.7761 C   0  0  0  0  0  0  0  0  0  0  0  0
   -7.4445  -16.6221   11.9131 O   0  0  0  0  0  0  0  0  0  0  0  0
   -8.8524  -14.7024   11.8973 C   0  0  0  0  0  0  0  0  0  0  0  0
  1  2  1  0
  2  3  1  0
  3  4  1  0
  4  5  2  0
  4  6  1  0
  6  7  1  0
  7  8  1  0
  7 17  1  0
  8  9  1  0
  8 14  1  0
  9 10  1  0
  9 16  1  0
 10 11  1  0
 11 12  1  0
 12 13  2  0
 12 14  1  0
 12 15  1  0
 16 17  1  0
 17 18  1  0
 18 19  1  0
 18 22  1  0
 19 20  2  0
 20 21  1  0
 21 22  2  0
 21 26  1  0
 22 23  1  0
 23 24  2  0
 24 25  1  0
 24 28  1  0
 25 26  2  0
 26 27  1  0
 28 29  1  0
 29 30  2  0
 29 31  1  0
M  END
>  <Gold.Gold.Protein.RotatedWaterAtoms>  (314) 


>  <Gold.Id.Protein>  (314) 


>  <Gold.PLP.Chemscore.CHOScore>  (314) 
0.0000

>  <Gold.PLP.Chemscore.Hbond>  (314) 
1.2080

>  <Gold.PLP.Chemscore.Internal.Correction>  (314) 
0.1232

>  <Gold.PLP.Chemscore.Metal>  (314) 
0.0000

>  <Gold.PLP.Fitness>  (314) 
47.7145

>  <Gold.PLP.PLP>  (314) 
-46.0218

>  <Gold.PLP.ligand.clash>  (314) 
0.0000

>  <Gold.PLP.ligand.torsion>  (314) 
1.0272

>  <Gold.PLP.part.buried>  (314) 
-2.2958

>  <Gold.PLP.part.hbond>  (314) 
-4.0214

>  <Gold.PLP.part.metal>  (314) 
0.0000

>  <Gold.PLP.part.nonpolar>  (314) 
-41.4699

>  <Gold.PLP.part.repulsive>  (314) 
0.9524

>  <Gold.Protein.RotatedAtoms>  (314) 


>  <Gold.Protein.RotatedTorsions>  (314) 


>  <Gold.Protein.RotatedWaterAtoms>  (314) 


>  <Gold.Version>  (314) 
5.3.0

>  <PLP.Chemscore.CHOScore>  (314) 


>  <PLP.Chemscore.Hbond>  (314) 


>  <PLP.Chemscore.Internal.Correction>  (314) 


>  <PLP.Chemscore.Metal>  (314) 


>  <PLP.Fitness>  (314) 


>  <PLP.PLP>  (314) 


>  <PLP.ligand.clash>  (314) 


>  <PLP.ligand.torsion>  (314) 


>  <PLP.part.buried>  (314) 


>  <PLP.part.hbond>  (314) 


>  <PLP.part.metal>  (314) 


>  <PLP.part.nonpolar>  (314) 


>  <PLP.part.repulsive>  (314) 


>  <RMSD>  (314) 
0.291955871297

>  <Torsion>  (314) 
171.923704933

>  <TorsionO>  (314) 
6.03609353985

>  <TorsionR>  (314) 
177.959798473

>  <Version>  (314) 


>  <product>  (314) 
88|Compound_32|Compounds_3D_F|sdf|14|dock5|1

>  <rmsd>  (314) 
-1

$$$$
193|32168_281|Aromatic_primary_amines_F|sdf|39|dock6|1
     RDKit          3D

 23 25  0  0  0  0  0  0  0  0999 V2000
   -7.8439  -12.1461   11.8919 C   0  0  0  0  0  0  0  0  0  0  0  0
   -8.5691  -13.4472   11.6781 C   0  0  0  0  0  0  0  0  0  0  0  0
   -9.7886  -13.4981   11.5208 O   0  0  0  0  0  0  0  0  0  0  0  0
   -7.7264  -14.5390   11.7020 N   0  0  0  0  0  0  0  0  0  0  0  0
   -8.1889  -15.8197   11.5323 C   0  0  0  0  0  0  0  0  0  0  0  0
   -9.4747  -16.2039   11.8163 N   0  0  0  0  0  0  0  0  0  0  0  0
   -9.5964  -17.5375   11.5379 C   0  0  0  0  0  0  0  0  0  0  0  0
  -10.6643  -18.4283   11.6415 C   0  0  0  0  0  0  0  0  0  0  0  0
  -10.4051  -19.7586   11.2778 C   0  0  0  0  0  0  0  0  0  0  0  0
   -9.1530  -20.1507   10.7795 C   0  0  0  0  0  0  0  0  0  0  0  0
   -8.1017  -19.2294   10.6839 C   0  0  0  0  0  0  0  0  0  0  0  0
   -8.3349  -17.9032   11.0783 C   0  0  0  0  0  0  0  0  0  0  0  0
   -7.4773  -16.8281   11.0838 N   0  0  0  0  0  0  0  0  0  0  0  0
   -8.8530  -21.7658   10.2429 Cl  0  0  0  0  0  0  0  0  0  0  0  0
  -11.4669  -20.6323   11.3734 O   0  0  0  0  0  0  0  0  0  0  0  0
  -12.5262  -20.4408   10.5053 C   0  0  0  0  0  0  0  0  0  0  0  0
  -13.3188  -19.2846   10.5304 C   0  0  0  0  0  0  0  0  0  0  0  0
  -14.3665  -19.1344    9.6224 C   0  0  0  0  0  0  0  0  0  0  0  0
  -14.6219  -20.1279    8.6796 C   0  0  0  0  0  0  0  0  0  0  0  0
  -13.8238  -21.2756    8.6345 C   0  0  0  0  0  0  0  0  0  0  0  0
  -12.7674  -21.4342    9.5416 C   0  0  0  0  0  0  0  0  0  0  0  0
  -11.7588  -22.8458    9.4996 Cl  0  0  0  0  0  0  0  0  0  0  0  0
  -14.1988  -22.4584    7.4296 Cl  0  0  0  0  0  0  0  0  0  0  0  0
  1  2  1  0
  2  3  2  0
  2  4  1  0
  4  5  1  0
  5  6  1  0
  5 13  2  0
  6  7  1  0
  7  8  2  0
  7 12  1  0
  8  9  1  0
  9 10  2  0
  9 15  1  0
 10 11  1  0
 10 14  1  0
 11 12  2  0
 12 13  1  0
 15 16  1  0
 16 17  2  0
 16 21  1  0
 17 18  1  0
 18 19  2  0
 19 20  1  0
 20 21  2  0
 20 23  1  0
 21 22  1  0
M  END
>  <Gold.Gold.Protein.RotatedWaterAtoms>  (315) 


>  <Gold.Id.Protein>  (315) 


>  <Gold.PLP.Chemscore.CHOScore>  (315) 
0.0000

>  <Gold.PLP.Chemscore.Hbond>  (315) 
1.0000

>  <Gold.PLP.Chemscore.Internal.Correction>  (315) 
0.0086

>  <Gold.PLP.Chemscore.Metal>  (315) 
0.0000

>  <Gold.PLP.Fitness>  (315) 
50.7139

>  <Gold.PLP.PLP>  (315) 
-48.1706

>  <Gold.PLP.ligand.clash>  (315) 
0.0000

>  <Gold.PLP.ligand.torsion>  (315) 
0.2327

>  <Gold.PLP.part.buried>  (315) 
-6.5205

>  <Gold.PLP.part.hbond>  (315) 
-2.0000

>  <Gold.PLP.part.metal>  (315) 
0.0000

>  <Gold.PLP.part.nonpolar>  (315) 
-39.3857

>  <Gold.PLP.part.repulsive>  (315) 
0.3298

>  <Gold.Protein.RotatedAtoms>  (315) 


>  <Gold.Protein.RotatedTorsions>  (315) 


>  <Gold.Protein.RotatedWaterAtoms>  (315) 


>  <Gold.Version>  (315) 
5.3.0

>  <PLP.Chemscore.CHOScore>  (315) 


>  <PLP.Chemscore.Hbond>  (315) 


>  <PLP.Chemscore.Internal.Correction>  (315) 


>  <PLP.Chemscore.Metal>  (315) 


>  <PLP.Fitness>  (315) 


>  <PLP.PLP>  (315) 


>  <PLP.ligand.clash>  (315) 


>  <PLP.ligand.torsion>  (315) 


>  <PLP.part.buried>  (315) 


>  <PLP.part.hbond>  (315) 


>  <PLP.part.metal>  (315) 


>  <PLP.part.nonpolar>  (315) 


>  <PLP.part.repulsive>  (315) 


>  <RMSD>  (315) 
0.439733510035

>  <Torsion>  (315) 
177.672185574

>  <TorsionO>  (315) 
4.31728583372

>  <TorsionR>  (315) 
173.35489974

>  <Version>  (315) 


>  <product>  (315) 
88|Compound_32|Compounds_3D_F|sdf|14|dock5|1

>  <rmsd>  (315) 
-1

$$$$
44|Compound_21|Compounds_3D_F|sdf|8|dock7|1
     RDKit          3D

 10  9  0  0  0  0  0  0  0  0999 V2000
  -10.3041  -17.3667   10.3333 O   0  0  0  0  0  0  0  0  0  0  0  0
  -11.1624  -18.3031    9.6795 C   0  0  0  0  0  0  0  0  0  0  0  0
  -11.8103  -19.2160   10.7218 C   0  0  0  0  0  0  0  0  0  0  0  0
  -12.7506  -20.1230   10.0600 N   0  0  0  0  0  0  0  0  0  0  0  0
  -13.7684  -19.6243    9.3306 C   0  0  0  0  0  0  0  0  0  0  0  0
  -13.9056  -18.4242    9.2227 O   0  0  0  0  0  0  0  0  0  0  0  0
  -14.7766  -20.5967    8.6210 B   0  0  0  0  0  0  0  0  0  0  0  0
  -10.7268  -20.0320   11.4292 C   0  0  0  0  0  0  0  0  0  0  0  0
  -12.5596  -18.3647   11.7494 C   0  0  0  0  0  0  0  0  0  0  0  0
  -11.6231  -17.5904   12.5014 O   0  0  0  0  0  0  0  0  0  0  0  0
  1  2  1  0
  2  3  1  0
  3  4  1  0
  3  8  1  0
  3  9  1  0
  4  5  1  0
  5  6  2  0
  5  7  1  0
  9 10  1  0
M  END
>  <Gold.Gold.Protein.RotatedWaterAtoms>  (316) 


>  <Gold.Id.Protein>  (316) 


>  <Gold.PLP.Chemscore.CHOScore>  (316) 
0.0000

>  <Gold.PLP.Chemscore.Hbond>  (316) 
3.0000

>  <Gold.PLP.Chemscore.Internal.Correction>  (316) 
0.0005

>  <Gold.PLP.Chemscore.Metal>  (316) 
0.0000

>  <Gold.PLP.Fitness>  (316) 
30.3492

>  <Gold.PLP.PLP>  (316) 
-21.4479

>  <Gold.PLP.ligand.clash>  (316) 
0.0000

>  <Gold.PLP.ligand.torsion>  (316) 
0.0496

>  <Gold.PLP.part.buried>  (316) 
-2.9273

>  <Gold.PLP.part.hbond>  (316) 
-3.0000

>  <Gold.PLP.part.metal>  (316) 
0.0000

>  <Gold.PLP.part.nonpolar>  (316) 
-14.5362

>  <Gold.PLP.part.repulsive>  (316) 
0.1209

>  <Gold.Protein.RotatedAtoms>  (316) 


>  <Gold.Protein.RotatedTorsions>  (316) 


>  <Gold.Protein.RotatedWaterAtoms>  (316) 


>  <Gold.Version>  (316) 
5.3.0

>  <PLP.Chemscore.CHOScore>  (316) 


>  <PLP.Chemscore.Hbond>  (316) 


>  <PLP.Chemscore.Internal.Correction>  (316) 


>  <PLP.Chemscore.Metal>  (316) 


>  <PLP.Fitness>  (316) 


>  <PLP.PLP>  (316) 


>  <PLP.ligand.clash>  (316) 


>  <PLP.ligand.torsion>  (316) 


>  <PLP.part.buried>  (316) 


>  <PLP.part.hbond>  (316) 


>  <PLP.part.metal>  (316) 


>  <PLP.part.nonpolar>  (316) 


>  <PLP.part.repulsive>  (316) 


>  <Version>  (316) 


$$$$
94|664022_40|Aromatic_carboxylic_acids_F|sdf|24|dock1|1
     RDKit          3D

 12 12  0  0  0  0  0  0  0  0999 V2000
   -8.2596  -17.1212   11.4595 C   0  0  0  0  0  0  0  0  0  0  0  0
   -7.6366  -15.8367   11.6688 N   0  0  0  0  0  0  0  0  0  0  0  0
   -8.3409  -14.6553   11.5719 C   0  0  0  0  0  0  0  0  0  0  0  0
   -9.5296  -14.5547   11.2978 O   0  0  0  0  0  0  0  0  0  0  0  0
   -7.5420  -13.4431   11.8503 C   0  0  0  0  0  0  0  0  0  0  0  0
   -8.1627  -12.1983   11.6738 C   0  0  0  0  0  0  0  0  0  0  0  0
   -7.4390  -11.0301   11.9055 C   0  0  0  0  0  0  0  0  0  0  0  0
   -6.1069  -11.0910   12.3103 C   0  0  0  0  0  0  0  0  0  0  0  0
   -5.4897  -12.3324   12.4853 C   0  0  0  0  0  0  0  0  0  0  0  0
   -6.2035  -13.5136   12.2549 C   0  0  0  0  0  0  0  0  0  0  0  0
   -5.3062  -15.1564   12.5638 Br  0  0  0  0  0  0  0  0  0  0  0  0
   -8.1960   -9.5005   11.6887 Cl  0  0  0  0  0  0  0  0  0  0  0  0
  1  2  1  0
  2  3  1  0
  3  4  2  0
  3  5  1  0
  5  6  2  0
  5 10  1  0
  6  7  1  0
  7  8  2  0
  7 12  1  0
  8  9  1  0
  9 10  2  0
 10 11  1  0
M  END
>  <Gold.Gold.Protein.RotatedWaterAtoms>  (317) 


>  <Gold.Id.Protein>  (317) 


>  <Gold.PLP.Chemscore.CHOScore>  (317) 
0.0000

>  <Gold.PLP.Chemscore.Hbond>  (317) 
0.4160

>  <Gold.PLP.Chemscore.Internal.Correction>  (317) 
0.0004

>  <Gold.PLP.Chemscore.Metal>  (317) 
0.0000

>  <Gold.PLP.Fitness>  (317) 
48.9046

>  <Gold.PLP.PLP>  (317) 
-47.6744

>  <Gold.PLP.ligand.clash>  (317) 
0.0000

>  <Gold.PLP.ligand.torsion>  (317) 
0.0091

>  <Gold.PLP.part.buried>  (317) 
-7.3578

>  <Gold.PLP.part.hbond>  (317) 
-0.5127

>  <Gold.PLP.part.metal>  (317) 
0.0000

>  <Gold.PLP.part.nonpolar>  (317) 
-40.3098

>  <Gold.PLP.part.repulsive>  (317) 
0.1684

>  <Gold.Protein.RotatedAtoms>  (317) 


>  <Gold.Protein.RotatedTorsions>  (317) 


>  <Gold.Protein.RotatedWaterAtoms>  (317) 


>  <Gold.Version>  (317) 
5.3.0

>  <PLP.Chemscore.CHOScore>  (317) 


>  <PLP.Chemscore.Hbond>  (317) 


>  <PLP.Chemscore.Internal.Correction>  (317) 


>  <PLP.Chemscore.Metal>  (317) 


>  <PLP.Fitness>  (317) 


>  <PLP.PLP>  (317) 


>  <PLP.ligand.clash>  (317) 


>  <PLP.ligand.torsion>  (317) 


>  <PLP.part.buried>  (317) 


>  <PLP.part.hbond>  (317) 


>  <PLP.part.metal>  (317) 


>  <PLP.part.nonpolar>  (317) 


>  <PLP.part.repulsive>  (317) 


>  <RMSD>  (317) 
0.30972197429

>  <Torsion>  (317) 
172.929186758

>  <TorsionO>  (317) 
24.4968065243

>  <TorsionR>  (317) 
162.574006718

>  <Version>  (317) 


>  <product>  (317) 
44|Compound_21|Compounds_3D_F|sdf|8|dock7|1

>  <rmsd>  (317) 
-1

$$$$
110|565385_49|Aromatic_carboxylic_acids_F|sdf|29|dock1|1
     RDKit          3D

 13 13  0  0  0  0  0  0  0  0999 V2000
  -10.1118  -17.9021   11.6320 C   0  0  0  0  0  0  0  0  0  0  0  0
   -9.7537  -16.5043   11.6546 N   0  0  0  0  0  0  0  0  0  0  0  0
   -8.4330  -16.1187   11.7930 C   0  0  0  0  0  0  0  0  0  0  0  0
   -7.5159  -16.9298   11.9008 O   0  0  0  0  0  0  0  0  0  0  0  0
   -8.1234  -14.6552   11.8105 C   0  0  0  0  0  0  0  0  0  0  0  0
   -9.0636  -13.6551   11.5375 C   0  0  0  0  0  0  0  0  0  0  0  0
   -8.6966  -12.3009   11.5726 C   0  0  0  0  0  0  0  0  0  0  0  0
   -7.3879  -11.9195   11.8809 C   0  0  0  0  0  0  0  0  0  0  0  0
   -6.4486  -12.9235   12.1551 C   0  0  0  0  0  0  0  0  0  0  0  0
   -6.8098  -14.2750   12.1207 C   0  0  0  0  0  0  0  0  0  0  0  0
   -4.6444  -12.5025   12.5849 Br  0  0  0  0  0  0  0  0  0  0  0  0
   -6.9476  -10.6242   11.9372 O   0  0  0  0  0  0  0  0  0  0  0  0
   -7.9020   -9.5910   11.7256 C   0  0  0  0  0  0  0  0  0  0  0  0
  1  2  1  0
  2  3  1  0
  3  4  2  0
  3  5  1  0
  5  6  2  0
  5 10  1  0
  6  7  1  0
  7  8  2  0
  8  9  1  0
  8 12  1  0
  9 10  2  0
  9 11  1  0
 12 13  1  0
M  END
>  <Gold.Gold.Protein.RotatedWaterAtoms>  (318) 


>  <Gold.Id.Protein>  (318) 


>  <Gold.PLP.Chemscore.CHOScore>  (318) 
0.0000

>  <Gold.PLP.Chemscore.Hbond>  (318) 
1.0000

>  <Gold.PLP.Chemscore.Internal.Correction>  (318) 
0.0000

>  <Gold.PLP.Chemscore.Metal>  (318) 
0.0000

>  <Gold.PLP.Fitness>  (318) 
43.9775

>  <Gold.PLP.PLP>  (318) 
-41.0517

>  <Gold.PLP.ligand.clash>  (318) 
0.0000

>  <Gold.PLP.ligand.torsion>  (318) 
0.0371

>  <Gold.PLP.part.buried>  (318) 
-3.7367

>  <Gold.PLP.part.hbond>  (318) 
-1.0000

>  <Gold.PLP.part.metal>  (318) 
0.0000

>  <Gold.PLP.part.nonpolar>  (318) 
-36.7483

>  <Gold.PLP.part.repulsive>  (318) 
0.4054

>  <Gold.Protein.RotatedAtoms>  (318) 


>  <Gold.Protein.RotatedTorsions>  (318) 


>  <Gold.Protein.RotatedWaterAtoms>  (318) 


>  <Gold.Version>  (318) 
5.3.0

>  <PLP.Chemscore.CHOScore>  (318) 


>  <PLP.Chemscore.Hbond>  (318) 


>  <PLP.Chemscore.Internal.Correction>  (318) 


>  <PLP.Chemscore.Metal>  (318) 


>  <PLP.Fitness>  (318) 


>  <PLP.PLP>  (318) 


>  <PLP.ligand.clash>  (318) 


>  <PLP.ligand.torsion>  (318) 


>  <PLP.part.buried>  (318) 


>  <PLP.part.hbond>  (318) 


>  <PLP.part.metal>  (318) 


>  <PLP.part.nonpolar>  (318) 


>  <PLP.part.repulsive>  (318) 


>  <RMSD>  (318) 
0.319376411377

>  <Torsion>  (318) 
169.460450784

>  <TorsionO>  (318) 
9.7963905484

>  <TorsionR>  (318) 
179.256841332

>  <Version>  (318) 


>  <product>  (318) 
44|Compound_21|Compounds_3D_F|sdf|8|dock7|1

>  <rmsd>  (318) 
-1

$$$$
128|137677_56|Aromatic_carboxylic_acids_F|sdf|33|dock1|1
     RDKit          3D

 11 11  0  0  0  0  0  0  0  0999 V2000
   -8.6116  -16.1544   11.8887 C   0  0  0  0  0  0  0  0  0  0  0  0
   -7.9978  -14.8484   11.9215 N   0  0  0  0  0  0  0  0  0  0  0  0
   -8.7778  -13.7008   11.8756 C   0  0  0  0  0  0  0  0  0  0  0  0
  -10.0002  -13.7896   11.8139 O   0  0  0  0  0  0  0  0  0  0  0  0
   -8.0808  -12.3609   11.9017 C   0  0  0  0  0  0  0  0  0  0  0  0
   -8.7916  -11.1851   11.5813 C   0  0  0  0  0  0  0  0  0  0  0  0
   -8.1781   -9.9267   11.5989 C   0  0  0  0  0  0  0  0  0  0  0  0
   -6.8391   -9.8089   11.9369 C   0  0  0  0  0  0  0  0  0  0  0  0
   -6.1124  -10.9502   12.2575 C   0  0  0  0  0  0  0  0  0  0  0  0
   -6.7171  -12.2196   12.2428 C   0  0  0  0  0  0  0  0  0  0  0  0
   -5.5419  -13.6455   12.7121 Br  0  0  0  0  0  0  0  0  0  0  0  0
  1  2  1  0
  2  3  1  0
  3  4  2  0
  3  5  1  0
  5  6  2  0
  5 10  1  0
  6  7  1  0
  7  8  2  0
  8  9  1  0
  9 10  2  0
 10 11  1  0
M  END
>  <Gold.Gold.Protein.RotatedWaterAtoms>  (319) 


>  <Gold.Id.Protein>  (319) 


>  <Gold.PLP.Chemscore.CHOScore>  (319) 
0.0000

>  <Gold.PLP.Chemscore.Hbond>  (319) 
1.0000

>  <Gold.PLP.Chemscore.Internal.Correction>  (319) 
0.0000

>  <Gold.PLP.Chemscore.Metal>  (319) 
0.0000

>  <Gold.PLP.Fitness>  (319) 
45.2899

>  <Gold.PLP.PLP>  (319) 
-42.4444

>  <Gold.PLP.ligand.clash>  (319) 
0.0000

>  <Gold.PLP.ligand.torsion>  (319) 
0.0772

>  <Gold.PLP.part.buried>  (319) 
-6.4690

>  <Gold.PLP.part.hbond>  (319) 
-0.6863

>  <Gold.PLP.part.metal>  (319) 
0.0000

>  <Gold.PLP.part.nonpolar>  (319) 
-34.8280

>  <Gold.PLP.part.repulsive>  (319) 
0.1963

>  <Gold.Protein.RotatedAtoms>  (319) 


>  <Gold.Protein.RotatedTorsions>  (319) 


>  <Gold.Protein.RotatedWaterAtoms>  (319) 


>  <Gold.Version>  (319) 
5.3.0

>  <PLP.Chemscore.CHOScore>  (319) 


>  <PLP.Chemscore.Hbond>  (319) 


>  <PLP.Chemscore.Internal.Correction>  (319) 


>  <PLP.Chemscore.Metal>  (319) 


>  <PLP.Fitness>  (319) 


>  <PLP.PLP>  (319) 


>  <PLP.ligand.clash>  (319) 


>  <PLP.ligand.torsion>  (319) 


>  <PLP.part.buried>  (319) 


>  <PLP.part.hbond>  (319) 


>  <PLP.part.metal>  (319) 


>  <PLP.part.nonpolar>  (319) 


>  <PLP.part.repulsive>  (319) 


>  <RMSD>  (319) 
0.428070490903

>  <Torsion>  (319) 
152.444048788

>  <TorsionO>  (319) 
39.0580871276

>  <TorsionR>  (319) 
168.497864085

>  <Version>  (319) 


>  <product>  (319) 
44|Compound_21|Compounds_3D_F|sdf|8|dock7|1

>  <rmsd>  (319) 
-1

$$$$
974|750794_1404|Aromatic_primary_amines_F|sdf|194|dock3|1
     RDKit          3D

 14 14  0  0  0  0  0  0  0  0999 V2000
  -13.6355  -18.1936    9.4145 C   0  0  0  0  0  0  0  0  0  0  0  0
  -13.2544  -19.4497   10.1732 C   0  0  0  0  0  0  0  0  0  0  0  0
  -11.8731  -19.3506   10.5383 O   0  0  0  0  0  0  0  0  0  0  0  0
  -11.6148  -18.5085   11.5823 C   0  0  0  0  0  0  0  0  0  0  0  0
  -12.3947  -18.2810   12.5004 O   0  0  0  0  0  0  0  0  0  0  0  0
  -10.3031  -17.8985   11.4902 C   0  0  0  0  0  0  0  0  0  0  0  0
   -9.1673  -18.4974   10.9931 C   0  0  0  0  0  0  0  0  0  0  0  0
   -8.1448  -17.6055   11.0758 O   0  0  0  0  0  0  0  0  0  0  0  0
   -8.7110  -16.4917   11.6237 C   0  0  0  0  0  0  0  0  0  0  0  0
   -9.9933  -16.6110   11.8915 N   0  0  0  0  0  0  0  0  0  0  0  0
   -7.9611  -15.3718   11.8549 N   0  0  0  0  0  0  0  0  0  0  0  0
   -8.5046  -14.1249   12.0676 C   0  0  0  0  0  0  0  0  0  0  0  0
   -9.6950  -13.8313   12.1035 O   0  0  0  0  0  0  0  0  0  0  0  0
   -7.4448  -13.0785   12.3021 C   0  0  0  0  0  0  0  0  0  0  0  0
  1  2  1  0
  2  3  1  0
  3  4  1  0
  4  5  2  0
  4  6  1  0
  6  7  2  0
  6 10  1  0
  7  8  1  0
  8  9  1  0
  9 10  2  0
  9 11  1  0
 11 12  1  0
 12 13  2  0
 12 14  1  0
M  END
>  <Gold.Gold.Protein.RotatedWaterAtoms>  (320) 


>  <Gold.Id.Protein>  (320) 


>  <Gold.PLP.Chemscore.CHOScore>  (320) 
0.0000

>  <Gold.PLP.Chemscore.Hbond>  (320) 
2.0000

>  <Gold.PLP.Chemscore.Internal.Correction>  (320) 
0.0053

>  <Gold.PLP.Chemscore.Metal>  (320) 
0.0000

>  <Gold.PLP.Fitness>  (320) 
36.8047

>  <Gold.PLP.PLP>  (320) 
-32.7996

>  <Gold.PLP.ligand.clash>  (320) 
0.0000

>  <Gold.PLP.ligand.torsion>  (320) 
1.0001

>  <Gold.PLP.part.buried>  (320) 
-6.5206

>  <Gold.PLP.part.hbond>  (320) 
-2.9156

>  <Gold.PLP.part.metal>  (320) 
0.0000

>  <Gold.PLP.part.nonpolar>  (320) 
-23.4080

>  <Gold.PLP.part.repulsive>  (320) 
0.3100

>  <Gold.Protein.RotatedAtoms>  (320) 


>  <Gold.Protein.RotatedTorsions>  (320) 


>  <Gold.Protein.RotatedWaterAtoms>  (320) 


>  <Gold.Version>  (320) 
5.3.0

>  <PLP.Chemscore.CHOScore>  (320) 


>  <PLP.Chemscore.Hbond>  (320) 


>  <PLP.Chemscore.Internal.Correction>  (320) 


>  <PLP.Chemscore.Metal>  (320) 


>  <PLP.Fitness>  (320) 


>  <PLP.PLP>  (320) 


>  <PLP.ligand.clash>  (320) 


>  <PLP.ligand.torsion>  (320) 


>  <PLP.part.buried>  (320) 


>  <PLP.part.hbond>  (320) 


>  <PLP.part.metal>  (320) 


>  <PLP.part.nonpolar>  (320) 


>  <PLP.part.repulsive>  (320) 


>  <RMSD>  (320) 
0.499949349045

>  <Torsion>  (320) 
159.973716791

>  <TorsionO>  (320) 
19.1052109979

>  <TorsionR>  (320) 
179.078927789

>  <Version>  (320) 


>  <product>  (320) 
44|Compound_21|Compounds_3D_F|sdf|8|dock7|1

>  <rmsd>  (320) 
-1

$$$$
1884|M3006_1781|Aromatic_primary_amines_F|sdf|361|dock3|1
     RDKit          3D

 31 34  0  0  0  0  0  0  0  0999 V2000
  -14.4210  -19.8971    8.7934 C   0  0  0  0  0  0  0  0  0  0  0  0
  -13.9762  -19.4927   10.1894 C   0  0  0  0  0  0  0  0  0  0  0  0
  -14.1356  -20.6409   11.1817 C   0  0  0  0  0  0  0  0  0  0  0  0
  -13.5197  -20.3070   12.5189 C   0  0  0  0  0  0  0  0  0  0  0  0
  -12.9307  -19.2724   12.7954 O   0  0  0  0  0  0  0  0  0  0  0  0
  -13.7110  -21.3451   13.3845 O   0  0  0  0  0  0  0  0  0  0  0  0
  -12.9425  -21.2698   14.5900 C   0  0  0  0  0  0  0  0  0  0  0  0
  -12.8849  -22.6189   15.2889 C   0  0  0  0  0  0  0  0  0  0  0  0
  -11.6552  -22.4172   16.1494 C   0  0  0  0  0  0  0  0  0  0  0  0
  -11.2420  -23.7410   16.7624 C   0  0  0  0  0  0  0  0  0  0  0  0
  -12.3024  -24.2223   17.5862 O   0  0  0  0  0  0  0  0  0  0  0  0
  -13.7888  -24.3384   16.9603 P   0  0  0  0  0  0  0  0  0  0  0  0
  -14.8775  -24.6795   17.9243 O   0  0  0  0  0  0  0  0  0  0  0  0
  -13.9839  -22.9641   16.1174 O   0  0  0  0  0  0  0  0  0  0  0  0
  -13.5991  -25.4435   15.8075 O   0  0  0  0  0  0  0  0  0  0  0  0
  -10.6922  -21.8161   15.2889 O   0  0  0  0  0  0  0  0  0  0  0  0
  -11.4338  -20.9664   14.3653 C   0  0  0  0  0  0  0  0  0  0  0  0
  -10.9052  -21.2017   13.0342 N   0  0  0  0  0  0  0  0  0  0  0  0
  -10.7814  -22.4114   12.4013 C   0  0  0  0  0  0  0  0  0  0  0  0
  -10.2640  -22.2918   11.1953 N   0  0  0  0  0  0  0  0  0  0  0  0
  -10.0274  -20.9476   11.0424 C   0  0  0  0  0  0  0  0  0  0  0  0
  -10.4203  -20.2487   12.1733 C   0  0  0  0  0  0  0  0  0  0  0  0
  -10.3338  -18.9216   12.3641 N   0  0  0  0  0  0  0  0  0  0  0  0
   -9.8057  -18.2730   11.3024 C   0  0  0  0  0  0  0  0  0  0  0  0
   -9.3808  -18.8370   10.1545 N   0  0  0  0  0  0  0  0  0  0  0  0
   -9.4895  -20.1691   10.0244 C   0  0  0  0  0  0  0  0  0  0  0  0
   -9.0330  -20.6622    8.8349 O   0  0  0  0  0  0  0  0  0  0  0  0
   -9.7222  -16.8901   11.4793 N   0  0  0  0  0  0  0  0  0  0  0  0
   -8.5796  -16.1798   11.7761 C   0  0  0  0  0  0  0  0  0  0  0  0
   -7.4445  -16.6221   11.9131 O   0  0  0  0  0  0  0  0  0  0  0  0
   -8.8524  -14.7024   11.8973 C   0  0  0  0  0  0  0  0  0  0  0  0
  1  2  1  0
  2  3  1  0
  3  4  1  0
  4  5  2  0
  4  6  1  0
  6  7  1  0
  7  8  1  0
  7 17  1  0
  8  9  1  0
  8 14  1  0
  9 10  1  0
  9 16  1  0
 10 11  1  0
 11 12  1  0
 12 13  2  0
 12 14  1  0
 12 15  1  0
 16 17  1  0
 17 18  1  0
 18 19  1  0
 18 22  1  0
 19 20  2  0
 20 21  1  0
 21 22  2  0
 21 26  1  0
 22 23  1  0
 23 24  2  0
 24 25  1  0
 24 28  1  0
 25 26  2  0
 26 27  1  0
 28 29  1  0
 29 30  2  0
 29 31  1  0
M  END
>  <Gold.Gold.Protein.RotatedWaterAtoms>  (321) 


>  <Gold.Id.Protein>  (321) 


>  <Gold.PLP.Chemscore.CHOScore>  (321) 
0.0000

>  <Gold.PLP.Chemscore.Hbond>  (321) 
1.2080

>  <Gold.PLP.Chemscore.Internal.Correction>  (321) 
0.1232

>  <Gold.PLP.Chemscore.Metal>  (321) 
0.0000

>  <Gold.PLP.Fitness>  (321) 
47.7145

>  <Gold.PLP.PLP>  (321) 
-46.0218

>  <Gold.PLP.ligand.clash>  (321) 
0.0000

>  <Gold.PLP.ligand.torsion>  (321) 
1.0272

>  <Gold.PLP.part.buried>  (321) 
-2.2958

>  <Gold.PLP.part.hbond>  (321) 
-4.0214

>  <Gold.PLP.part.metal>  (321) 
0.0000

>  <Gold.PLP.part.nonpolar>  (321) 
-41.4699

>  <Gold.PLP.part.repulsive>  (321) 
0.9524

>  <Gold.Protein.RotatedAtoms>  (321) 


>  <Gold.Protein.RotatedTorsions>  (321) 


>  <Gold.Protein.RotatedWaterAtoms>  (321) 


>  <Gold.Version>  (321) 
5.3.0

>  <PLP.Chemscore.CHOScore>  (321) 


>  <PLP.Chemscore.Hbond>  (321) 


>  <PLP.Chemscore.Internal.Correction>  (321) 


>  <PLP.Chemscore.Metal>  (321) 


>  <PLP.Fitness>  (321) 


>  <PLP.PLP>  (321) 


>  <PLP.ligand.clash>  (321) 


>  <PLP.ligand.torsion>  (321) 


>  <PLP.part.buried>  (321) 


>  <PLP.part.hbond>  (321) 


>  <PLP.part.metal>  (321) 


>  <PLP.part.nonpolar>  (321) 


>  <PLP.part.repulsive>  (321) 


>  <RMSD>  (321) 
0.291955871297

>  <Torsion>  (321) 
171.923704933

>  <TorsionO>  (321) 
6.03609353985

>  <TorsionR>  (321) 
177.959798473

>  <Version>  (321) 


>  <product>  (321) 
44|Compound_21|Compounds_3D_F|sdf|8|dock7|1

>  <rmsd>  (321) 
-1

$$$$
193|32168_281|Aromatic_primary_amines_F|sdf|39|dock6|1
     RDKit          3D

 23 25  0  0  0  0  0  0  0  0999 V2000
   -7.8439  -12.1461   11.8919 C   0  0  0  0  0  0  0  0  0  0  0  0
   -8.5691  -13.4472   11.6781 C   0  0  0  0  0  0  0  0  0  0  0  0
   -9.7886  -13.4981   11.5208 O   0  0  0  0  0  0  0  0  0  0  0  0
   -7.7264  -14.5390   11.7020 N   0  0  0  0  0  0  0  0  0  0  0  0
   -8.1889  -15.8197   11.5323 C   0  0  0  0  0  0  0  0  0  0  0  0
   -9.4747  -16.2039   11.8163 N   0  0  0  0  0  0  0  0  0  0  0  0
   -9.5964  -17.5375   11.5379 C   0  0  0  0  0  0  0  0  0  0  0  0
  -10.6643  -18.4283   11.6415 C   0  0  0  0  0  0  0  0  0  0  0  0
  -10.4051  -19.7586   11.2778 C   0  0  0  0  0  0  0  0  0  0  0  0
   -9.1530  -20.1507   10.7795 C   0  0  0  0  0  0  0  0  0  0  0  0
   -8.1017  -19.2294   10.6839 C   0  0  0  0  0  0  0  0  0  0  0  0
   -8.3349  -17.9032   11.0783 C   0  0  0  0  0  0  0  0  0  0  0  0
   -7.4773  -16.8281   11.0838 N   0  0  0  0  0  0  0  0  0  0  0  0
   -8.8530  -21.7658   10.2429 Cl  0  0  0  0  0  0  0  0  0  0  0  0
  -11.4669  -20.6323   11.3734 O   0  0  0  0  0  0  0  0  0  0  0  0
  -12.5262  -20.4408   10.5053 C   0  0  0  0  0  0  0  0  0  0  0  0
  -13.3188  -19.2846   10.5304 C   0  0  0  0  0  0  0  0  0  0  0  0
  -14.3665  -19.1344    9.6224 C   0  0  0  0  0  0  0  0  0  0  0  0
  -14.6219  -20.1279    8.6796 C   0  0  0  0  0  0  0  0  0  0  0  0
  -13.8238  -21.2756    8.6345 C   0  0  0  0  0  0  0  0  0  0  0  0
  -12.7674  -21.4342    9.5416 C   0  0  0  0  0  0  0  0  0  0  0  0
  -11.7588  -22.8458    9.4996 Cl  0  0  0  0  0  0  0  0  0  0  0  0
  -14.1988  -22.4584    7.4296 Cl  0  0  0  0  0  0  0  0  0  0  0  0
  1  2  1  0
  2  3  2  0
  2  4  1  0
  4  5  1  0
  5  6  1  0
  5 13  2  0
  6  7  1  0
  7  8  2  0
  7 12  1  0
  8  9  1  0
  9 10  2  0
  9 15  1  0
 10 11  1  0
 10 14  1  0
 11 12  2  0
 12 13  1  0
 15 16  1  0
 16 17  2  0
 16 21  1  0
 17 18  1  0
 18 19  2  0
 19 20  1  0
 20 21  2  0
 20 23  1  0
 21 22  1  0
M  END
>  <Gold.Gold.Protein.RotatedWaterAtoms>  (322) 


>  <Gold.Id.Protein>  (322) 


>  <Gold.PLP.Chemscore.CHOScore>  (322) 
0.0000

>  <Gold.PLP.Chemscore.Hbond>  (322) 
1.0000

>  <Gold.PLP.Chemscore.Internal.Correction>  (322) 
0.0086

>  <Gold.PLP.Chemscore.Metal>  (322) 
0.0000

>  <Gold.PLP.Fitness>  (322) 
50.7139

>  <Gold.PLP.PLP>  (322) 
-48.1706

>  <Gold.PLP.ligand.clash>  (322) 
0.0000

>  <Gold.PLP.ligand.torsion>  (322) 
0.2327

>  <Gold.PLP.part.buried>  (322) 
-6.5205

>  <Gold.PLP.part.hbond>  (322) 
-2.0000

>  <Gold.PLP.part.metal>  (322) 
0.0000

>  <Gold.PLP.part.nonpolar>  (322) 
-39.3857

>  <Gold.PLP.part.repulsive>  (322) 
0.3298

>  <Gold.Protein.RotatedAtoms>  (322) 


>  <Gold.Protein.RotatedTorsions>  (322) 


>  <Gold.Protein.RotatedWaterAtoms>  (322) 


>  <Gold.Version>  (322) 
5.3.0

>  <PLP.Chemscore.CHOScore>  (322) 


>  <PLP.Chemscore.Hbond>  (322) 


>  <PLP.Chemscore.Internal.Correction>  (322) 


>  <PLP.Chemscore.Metal>  (322) 


>  <PLP.Fitness>  (322) 


>  <PLP.PLP>  (322) 


>  <PLP.ligand.clash>  (322) 


>  <PLP.ligand.torsion>  (322) 


>  <PLP.part.buried>  (322) 


>  <PLP.part.hbond>  (322) 


>  <PLP.part.metal>  (322) 


>  <PLP.part.nonpolar>  (322) 


>  <PLP.part.repulsive>  (322) 


>  <RMSD>  (322) 
0.439733510035

>  <Torsion>  (322) 
177.672185574

>  <TorsionO>  (322) 
4.31728583372

>  <TorsionR>  (322) 
173.35489974

>  <Version>  (322) 


>  <product>  (322) 
44|Compound_21|Compounds_3D_F|sdf|8|dock7|1

>  <rmsd>  (322) 
-1

$$$$
53|Compound_23|Compounds_3D_F|sdf|9|dock8|1
     RDKit          3D

 11 10  0  0  0  0  0  0  0  0999 V2000
   -3.2403  -16.0918   11.3684 O   0  0  0  0  0  0  0  0  0  0  0  0
   -4.4909  -16.5667   11.2679 C   0  0  0  0  0  0  0  0  0  0  0  0
   -4.6769  -17.7235   10.9701 O   0  0  0  0  0  0  0  0  0  0  0  0
   -5.6653  -15.6579   11.5255 C   0  0  0  0  0  0  0  0  0  0  0  0
   -5.1795  -14.3267   11.8973 N   0  0  0  0  0  0  0  0  0  0  0  0
   -6.0562  -13.3268   12.1185 C   0  0  0  0  0  0  0  0  0  0  0  0
   -7.2466  -13.5295   12.0108 O   0  0  0  0  0  0  0  0  0  0  0  0
   -5.5353  -11.9006   12.5171 B   0  0  0  0  0  0  0  0  0  0  0  0
   -6.5112  -16.2283   12.6654 C   0  0  0  0  0  0  0  0  0  0  0  0
   -6.5185  -15.5546   10.2592 C   0  0  0  0  0  0  0  0  0  0  0  0
   -5.7200  -15.0487    9.1881 O   0  0  0  0  0  0  0  0  0  0  0  0
  1  2  1  0
  2  3  2  0
  2  4  1  0
  4  5  1  0
  4  9  1  0
  4 10  1  0
  5  6  1  0
  6  7  2  0
  6  8  1  0
 10 11  1  0
M  END
>  <Gold.Gold.Protein.RotatedWaterAtoms>  (323) 


>  <Gold.Id.Protein>  (323) 


>  <Gold.PLP.Chemscore.CHOScore>  (323) 
0.0000

>  <Gold.PLP.Chemscore.Hbond>  (323) 
2.0647

>  <Gold.PLP.Chemscore.Internal.Correction>  (323) 
0.0003

>  <Gold.PLP.Chemscore.Metal>  (323) 
0.0000

>  <Gold.PLP.Fitness>  (323) 
33.2624

>  <Gold.PLP.PLP>  (323) 
-27.1073

>  <Gold.PLP.ligand.clash>  (323) 
0.0000

>  <Gold.PLP.ligand.torsion>  (323) 
0.0196

>  <Gold.PLP.part.buried>  (323) 
-4.7631

>  <Gold.PLP.part.hbond>  (323) 
-6.1257

>  <Gold.PLP.part.metal>  (323) 
0.0000

>  <Gold.PLP.part.nonpolar>  (323) 
-17.7595

>  <Gold.PLP.part.repulsive>  (323) 
0.2433

>  <Gold.Protein.RotatedAtoms>  (323) 


>  <Gold.Protein.RotatedTorsions>  (323) 


>  <Gold.Protein.RotatedWaterAtoms>  (323) 


>  <Gold.Version>  (323) 
5.3.0

>  <PLP.Chemscore.CHOScore>  (323) 


>  <PLP.Chemscore.Hbond>  (323) 


>  <PLP.Chemscore.Internal.Correction>  (323) 


>  <PLP.Chemscore.Metal>  (323) 


>  <PLP.Fitness>  (323) 


>  <PLP.PLP>  (323) 


>  <PLP.ligand.clash>  (323) 


>  <PLP.ligand.torsion>  (323) 


>  <PLP.part.buried>  (323) 


>  <PLP.part.hbond>  (323) 


>  <PLP.part.metal>  (323) 


>  <PLP.part.nonpolar>  (323) 


>  <PLP.part.repulsive>  (323) 


>  <Version>  (323) 


$$$$
94|664022_40|Aromatic_carboxylic_acids_F|sdf|24|dock1|1
     RDKit          3D

 12 12  0  0  0  0  0  0  0  0999 V2000
   -8.2596  -17.1212   11.4595 C   0  0  0  0  0  0  0  0  0  0  0  0
   -7.6366  -15.8367   11.6688 N   0  0  0  0  0  0  0  0  0  0  0  0
   -8.3409  -14.6553   11.5719 C   0  0  0  0  0  0  0  0  0  0  0  0
   -9.5296  -14.5547   11.2978 O   0  0  0  0  0  0  0  0  0  0  0  0
   -7.5420  -13.4431   11.8503 C   0  0  0  0  0  0  0  0  0  0  0  0
   -8.1627  -12.1983   11.6738 C   0  0  0  0  0  0  0  0  0  0  0  0
   -7.4390  -11.0301   11.9055 C   0  0  0  0  0  0  0  0  0  0  0  0
   -6.1069  -11.0910   12.3103 C   0  0  0  0  0  0  0  0  0  0  0  0
   -5.4897  -12.3324   12.4853 C   0  0  0  0  0  0  0  0  0  0  0  0
   -6.2035  -13.5136   12.2549 C   0  0  0  0  0  0  0  0  0  0  0  0
   -5.3062  -15.1564   12.5638 Br  0  0  0  0  0  0  0  0  0  0  0  0
   -8.1960   -9.5005   11.6887 Cl  0  0  0  0  0  0  0  0  0  0  0  0
  1  2  1  0
  2  3  1  0
  3  4  2  0
  3  5  1  0
  5  6  2  0
  5 10  1  0
  6  7  1  0
  7  8  2  0
  7 12  1  0
  8  9  1  0
  9 10  2  0
 10 11  1  0
M  END
>  <Gold.Gold.Protein.RotatedWaterAtoms>  (324) 


>  <Gold.Id.Protein>  (324) 


>  <Gold.PLP.Chemscore.CHOScore>  (324) 
0.0000

>  <Gold.PLP.Chemscore.Hbond>  (324) 
0.4160

>  <Gold.PLP.Chemscore.Internal.Correction>  (324) 
0.0004

>  <Gold.PLP.Chemscore.Metal>  (324) 
0.0000

>  <Gold.PLP.Fitness>  (324) 
48.9046

>  <Gold.PLP.PLP>  (324) 
-47.6744

>  <Gold.PLP.ligand.clash>  (324) 
0.0000

>  <Gold.PLP.ligand.torsion>  (324) 
0.0091

>  <Gold.PLP.part.buried>  (324) 
-7.3578

>  <Gold.PLP.part.hbond>  (324) 
-0.5127

>  <Gold.PLP.part.metal>  (324) 
0.0000

>  <Gold.PLP.part.nonpolar>  (324) 
-40.3098

>  <Gold.PLP.part.repulsive>  (324) 
0.1684

>  <Gold.Protein.RotatedAtoms>  (324) 


>  <Gold.Protein.RotatedTorsions>  (324) 


>  <Gold.Protein.RotatedWaterAtoms>  (324) 


>  <Gold.Version>  (324) 
5.3.0

>  <PLP.Chemscore.CHOScore>  (324) 


>  <PLP.Chemscore.Hbond>  (324) 


>  <PLP.Chemscore.Internal.Correction>  (324) 


>  <PLP.Chemscore.Metal>  (324) 


>  <PLP.Fitness>  (324) 


>  <PLP.PLP>  (324) 


>  <PLP.ligand.clash>  (324) 


>  <PLP.ligand.torsion>  (324) 


>  <PLP.part.buried>  (324) 


>  <PLP.part.hbond>  (324) 


>  <PLP.part.metal>  (324) 


>  <PLP.part.nonpolar>  (324) 


>  <PLP.part.repulsive>  (324) 


>  <RMSD>  (324) 
0.30972197429

>  <Torsion>  (324) 
172.929186758

>  <TorsionO>  (324) 
24.4968065243

>  <TorsionR>  (324) 
162.574006718

>  <Version>  (324) 


>  <product>  (324) 
53|Compound_23|Compounds_3D_F|sdf|9|dock8|1

>  <rmsd>  (324) 
-1

$$$$
110|565385_49|Aromatic_carboxylic_acids_F|sdf|29|dock1|1
     RDKit          3D

 13 13  0  0  0  0  0  0  0  0999 V2000
  -10.1118  -17.9021   11.6320 C   0  0  0  0  0  0  0  0  0  0  0  0
   -9.7537  -16.5043   11.6546 N   0  0  0  0  0  0  0  0  0  0  0  0
   -8.4330  -16.1187   11.7930 C   0  0  0  0  0  0  0  0  0  0  0  0
   -7.5159  -16.9298   11.9008 O   0  0  0  0  0  0  0  0  0  0  0  0
   -8.1234  -14.6552   11.8105 C   0  0  0  0  0  0  0  0  0  0  0  0
   -9.0636  -13.6551   11.5375 C   0  0  0  0  0  0  0  0  0  0  0  0
   -8.6966  -12.3009   11.5726 C   0  0  0  0  0  0  0  0  0  0  0  0
   -7.3879  -11.9195   11.8809 C   0  0  0  0  0  0  0  0  0  0  0  0
   -6.4486  -12.9235   12.1551 C   0  0  0  0  0  0  0  0  0  0  0  0
   -6.8098  -14.2750   12.1207 C   0  0  0  0  0  0  0  0  0  0  0  0
   -4.6444  -12.5025   12.5849 Br  0  0  0  0  0  0  0  0  0  0  0  0
   -6.9476  -10.6242   11.9372 O   0  0  0  0  0  0  0  0  0  0  0  0
   -7.9020   -9.5910   11.7256 C   0  0  0  0  0  0  0  0  0  0  0  0
  1  2  1  0
  2  3  1  0
  3  4  2  0
  3  5  1  0
  5  6  2  0
  5 10  1  0
  6  7  1  0
  7  8  2  0
  8  9  1  0
  8 12  1  0
  9 10  2  0
  9 11  1  0
 12 13  1  0
M  END
>  <Gold.Gold.Protein.RotatedWaterAtoms>  (325) 


>  <Gold.Id.Protein>  (325) 


>  <Gold.PLP.Chemscore.CHOScore>  (325) 
0.0000

>  <Gold.PLP.Chemscore.Hbond>  (325) 
1.0000

>  <Gold.PLP.Chemscore.Internal.Correction>  (325) 
0.0000

>  <Gold.PLP.Chemscore.Metal>  (325) 
0.0000

>  <Gold.PLP.Fitness>  (325) 
43.9775

>  <Gold.PLP.PLP>  (325) 
-41.0517

>  <Gold.PLP.ligand.clash>  (325) 
0.0000

>  <Gold.PLP.ligand.torsion>  (325) 
0.0371

>  <Gold.PLP.part.buried>  (325) 
-3.7367

>  <Gold.PLP.part.hbond>  (325) 
-1.0000

>  <Gold.PLP.part.metal>  (325) 
0.0000

>  <Gold.PLP.part.nonpolar>  (325) 
-36.7483

>  <Gold.PLP.part.repulsive>  (325) 
0.4054

>  <Gold.Protein.RotatedAtoms>  (325) 


>  <Gold.Protein.RotatedTorsions>  (325) 


>  <Gold.Protein.RotatedWaterAtoms>  (325) 


>  <Gold.Version>  (325) 
5.3.0

>  <PLP.Chemscore.CHOScore>  (325) 


>  <PLP.Chemscore.Hbond>  (325) 


>  <PLP.Chemscore.Internal.Correction>  (325) 


>  <PLP.Chemscore.Metal>  (325) 


>  <PLP.Fitness>  (325) 


>  <PLP.PLP>  (325) 


>  <PLP.ligand.clash>  (325) 


>  <PLP.ligand.torsion>  (325) 


>  <PLP.part.buried>  (325) 


>  <PLP.part.hbond>  (325) 


>  <PLP.part.metal>  (325) 


>  <PLP.part.nonpolar>  (325) 


>  <PLP.part.repulsive>  (325) 


>  <RMSD>  (325) 
0.319376411377

>  <Torsion>  (325) 
169.460450784

>  <TorsionO>  (325) 
9.7963905484

>  <TorsionR>  (325) 
179.256841332

>  <Version>  (325) 


>  <product>  (325) 
53|Compound_23|Compounds_3D_F|sdf|9|dock8|1

>  <rmsd>  (325) 
-1

$$$$
128|137677_56|Aromatic_carboxylic_acids_F|sdf|33|dock1|1
     RDKit          3D

 11 11  0  0  0  0  0  0  0  0999 V2000
   -8.6116  -16.1544   11.8887 C   0  0  0  0  0  0  0  0  0  0  0  0
   -7.9978  -14.8484   11.9215 N   0  0  0  0  0  0  0  0  0  0  0  0
   -8.7778  -13.7008   11.8756 C   0  0  0  0  0  0  0  0  0  0  0  0
  -10.0002  -13.7896   11.8139 O   0  0  0  0  0  0  0  0  0  0  0  0
   -8.0808  -12.3609   11.9017 C   0  0  0  0  0  0  0  0  0  0  0  0
   -8.7916  -11.1851   11.5813 C   0  0  0  0  0  0  0  0  0  0  0  0
   -8.1781   -9.9267   11.5989 C   0  0  0  0  0  0  0  0  0  0  0  0
   -6.8391   -9.8089   11.9369 C   0  0  0  0  0  0  0  0  0  0  0  0
   -6.1124  -10.9502   12.2575 C   0  0  0  0  0  0  0  0  0  0  0  0
   -6.7171  -12.2196   12.2428 C   0  0  0  0  0  0  0  0  0  0  0  0
   -5.5419  -13.6455   12.7121 Br  0  0  0  0  0  0  0  0  0  0  0  0
  1  2  1  0
  2  3  1  0
  3  4  2  0
  3  5  1  0
  5  6  2  0
  5 10  1  0
  6  7  1  0
  7  8  2  0
  8  9  1  0
  9 10  2  0
 10 11  1  0
M  END
>  <Gold.Gold.Protein.RotatedWaterAtoms>  (326) 


>  <Gold.Id.Protein>  (326) 


>  <Gold.PLP.Chemscore.CHOScore>  (326) 
0.0000

>  <Gold.PLP.Chemscore.Hbond>  (326) 
1.0000

>  <Gold.PLP.Chemscore.Internal.Correction>  (326) 
0.0000

>  <Gold.PLP.Chemscore.Metal>  (326) 
0.0000

>  <Gold.PLP.Fitness>  (326) 
45.2899

>  <Gold.PLP.PLP>  (326) 
-42.4444

>  <Gold.PLP.ligand.clash>  (326) 
0.0000

>  <Gold.PLP.ligand.torsion>  (326) 
0.0772

>  <Gold.PLP.part.buried>  (326) 
-6.4690

>  <Gold.PLP.part.hbond>  (326) 
-0.6863

>  <Gold.PLP.part.metal>  (326) 
0.0000

>  <Gold.PLP.part.nonpolar>  (326) 
-34.8280

>  <Gold.PLP.part.repulsive>  (326) 
0.1963

>  <Gold.Protein.RotatedAtoms>  (326) 


>  <Gold.Protein.RotatedTorsions>  (326) 


>  <Gold.Protein.RotatedWaterAtoms>  (326) 


>  <Gold.Version>  (326) 
5.3.0

>  <PLP.Chemscore.CHOScore>  (326) 


>  <PLP.Chemscore.Hbond>  (326) 


>  <PLP.Chemscore.Internal.Correction>  (326) 


>  <PLP.Chemscore.Metal>  (326) 


>  <PLP.Fitness>  (326) 


>  <PLP.PLP>  (326) 


>  <PLP.ligand.clash>  (326) 


>  <PLP.ligand.torsion>  (326) 


>  <PLP.part.buried>  (326) 


>  <PLP.part.hbond>  (326) 


>  <PLP.part.metal>  (326) 


>  <PLP.part.nonpolar>  (326) 


>  <PLP.part.repulsive>  (326) 


>  <RMSD>  (326) 
0.428070490903

>  <Torsion>  (326) 
152.444048788

>  <TorsionO>  (326) 
39.0580871276

>  <TorsionR>  (326) 
168.497864085

>  <Version>  (326) 


>  <product>  (326) 
53|Compound_23|Compounds_3D_F|sdf|9|dock8|1

>  <rmsd>  (326) 
-1

$$$$
974|750794_1404|Aromatic_primary_amines_F|sdf|194|dock3|1
     RDKit          3D

 14 14  0  0  0  0  0  0  0  0999 V2000
  -13.6355  -18.1936    9.4145 C   0  0  0  0  0  0  0  0  0  0  0  0
  -13.2544  -19.4497   10.1732 C   0  0  0  0  0  0  0  0  0  0  0  0
  -11.8731  -19.3506   10.5383 O   0  0  0  0  0  0  0  0  0  0  0  0
  -11.6148  -18.5085   11.5823 C   0  0  0  0  0  0  0  0  0  0  0  0
  -12.3947  -18.2810   12.5004 O   0  0  0  0  0  0  0  0  0  0  0  0
  -10.3031  -17.8985   11.4902 C   0  0  0  0  0  0  0  0  0  0  0  0
   -9.1673  -18.4974   10.9931 C   0  0  0  0  0  0  0  0  0  0  0  0
   -8.1448  -17.6055   11.0758 O   0  0  0  0  0  0  0  0  0  0  0  0
   -8.7110  -16.4917   11.6237 C   0  0  0  0  0  0  0  0  0  0  0  0
   -9.9933  -16.6110   11.8915 N   0  0  0  0  0  0  0  0  0  0  0  0
   -7.9611  -15.3718   11.8549 N   0  0  0  0  0  0  0  0  0  0  0  0
   -8.5046  -14.1249   12.0676 C   0  0  0  0  0  0  0  0  0  0  0  0
   -9.6950  -13.8313   12.1035 O   0  0  0  0  0  0  0  0  0  0  0  0
   -7.4448  -13.0785   12.3021 C   0  0  0  0  0  0  0  0  0  0  0  0
  1  2  1  0
  2  3  1  0
  3  4  1  0
  4  5  2  0
  4  6  1  0
  6  7  2  0
  6 10  1  0
  7  8  1  0
  8  9  1  0
  9 10  2  0
  9 11  1  0
 11 12  1  0
 12 13  2  0
 12 14  1  0
M  END
>  <Gold.Gold.Protein.RotatedWaterAtoms>  (327) 


>  <Gold.Id.Protein>  (327) 


>  <Gold.PLP.Chemscore.CHOScore>  (327) 
0.0000

>  <Gold.PLP.Chemscore.Hbond>  (327) 
2.0000

>  <Gold.PLP.Chemscore.Internal.Correction>  (327) 
0.0053

>  <Gold.PLP.Chemscore.Metal>  (327) 
0.0000

>  <Gold.PLP.Fitness>  (327) 
36.8047

>  <Gold.PLP.PLP>  (327) 
-32.7996

>  <Gold.PLP.ligand.clash>  (327) 
0.0000

>  <Gold.PLP.ligand.torsion>  (327) 
1.0001

>  <Gold.PLP.part.buried>  (327) 
-6.5206

>  <Gold.PLP.part.hbond>  (327) 
-2.9156

>  <Gold.PLP.part.metal>  (327) 
0.0000

>  <Gold.PLP.part.nonpolar>  (327) 
-23.4080

>  <Gold.PLP.part.repulsive>  (327) 
0.3100

>  <Gold.Protein.RotatedAtoms>  (327) 


>  <Gold.Protein.RotatedTorsions>  (327) 


>  <Gold.Protein.RotatedWaterAtoms>  (327) 


>  <Gold.Version>  (327) 
5.3.0

>  <PLP.Chemscore.CHOScore>  (327) 


>  <PLP.Chemscore.Hbond>  (327) 


>  <PLP.Chemscore.Internal.Correction>  (327) 


>  <PLP.Chemscore.Metal>  (327) 


>  <PLP.Fitness>  (327) 


>  <PLP.PLP>  (327) 


>  <PLP.ligand.clash>  (327) 


>  <PLP.ligand.torsion>  (327) 


>  <PLP.part.buried>  (327) 


>  <PLP.part.hbond>  (327) 


>  <PLP.part.metal>  (327) 


>  <PLP.part.nonpolar>  (327) 


>  <PLP.part.repulsive>  (327) 


>  <RMSD>  (327) 
0.499949349045

>  <Torsion>  (327) 
159.973716791

>  <TorsionO>  (327) 
19.1052109979

>  <TorsionR>  (327) 
179.078927789

>  <Version>  (327) 


>  <product>  (327) 
53|Compound_23|Compounds_3D_F|sdf|9|dock8|1

>  <rmsd>  (327) 
-1

$$$$
1884|M3006_1781|Aromatic_primary_amines_F|sdf|361|dock3|1
     RDKit          3D

 31 34  0  0  0  0  0  0  0  0999 V2000
  -14.4210  -19.8971    8.7934 C   0  0  0  0  0  0  0  0  0  0  0  0
  -13.9762  -19.4927   10.1894 C   0  0  0  0  0  0  0  0  0  0  0  0
  -14.1356  -20.6409   11.1817 C   0  0  0  0  0  0  0  0  0  0  0  0
  -13.5197  -20.3070   12.5189 C   0  0  0  0  0  0  0  0  0  0  0  0
  -12.9307  -19.2724   12.7954 O   0  0  0  0  0  0  0  0  0  0  0  0
  -13.7110  -21.3451   13.3845 O   0  0  0  0  0  0  0  0  0  0  0  0
  -12.9425  -21.2698   14.5900 C   0  0  0  0  0  0  0  0  0  0  0  0
  -12.8849  -22.6189   15.2889 C   0  0  0  0  0  0  0  0  0  0  0  0
  -11.6552  -22.4172   16.1494 C   0  0  0  0  0  0  0  0  0  0  0  0
  -11.2420  -23.7410   16.7624 C   0  0  0  0  0  0  0  0  0  0  0  0
  -12.3024  -24.2223   17.5862 O   0  0  0  0  0  0  0  0  0  0  0  0
  -13.7888  -24.3384   16.9603 P   0  0  0  0  0  0  0  0  0  0  0  0
  -14.8775  -24.6795   17.9243 O   0  0  0  0  0  0  0  0  0  0  0  0
  -13.9839  -22.9641   16.1174 O   0  0  0  0  0  0  0  0  0  0  0  0
  -13.5991  -25.4435   15.8075 O   0  0  0  0  0  0  0  0  0  0  0  0
  -10.6922  -21.8161   15.2889 O   0  0  0  0  0  0  0  0  0  0  0  0
  -11.4338  -20.9664   14.3653 C   0  0  0  0  0  0  0  0  0  0  0  0
  -10.9052  -21.2017   13.0342 N   0  0  0  0  0  0  0  0  0  0  0  0
  -10.7814  -22.4114   12.4013 C   0  0  0  0  0  0  0  0  0  0  0  0
  -10.2640  -22.2918   11.1953 N   0  0  0  0  0  0  0  0  0  0  0  0
  -10.0274  -20.9476   11.0424 C   0  0  0  0  0  0  0  0  0  0  0  0
  -10.4203  -20.2487   12.1733 C   0  0  0  0  0  0  0  0  0  0  0  0
  -10.3338  -18.9216   12.3641 N   0  0  0  0  0  0  0  0  0  0  0  0
   -9.8057  -18.2730   11.3024 C   0  0  0  0  0  0  0  0  0  0  0  0
   -9.3808  -18.8370   10.1545 N   0  0  0  0  0  0  0  0  0  0  0  0
   -9.4895  -20.1691   10.0244 C   0  0  0  0  0  0  0  0  0  0  0  0
   -9.0330  -20.6622    8.8349 O   0  0  0  0  0  0  0  0  0  0  0  0
   -9.7222  -16.8901   11.4793 N   0  0  0  0  0  0  0  0  0  0  0  0
   -8.5796  -16.1798   11.7761 C   0  0  0  0  0  0  0  0  0  0  0  0
   -7.4445  -16.6221   11.9131 O   0  0  0  0  0  0  0  0  0  0  0  0
   -8.8524  -14.7024   11.8973 C   0  0  0  0  0  0  0  0  0  0  0  0
  1  2  1  0
  2  3  1  0
  3  4  1  0
  4  5  2  0
  4  6  1  0
  6  7  1  0
  7  8  1  0
  7 17  1  0
  8  9  1  0
  8 14  1  0
  9 10  1  0
  9 16  1  0
 10 11  1  0
 11 12  1  0
 12 13  2  0
 12 14  1  0
 12 15  1  0
 16 17  1  0
 17 18  1  0
 18 19  1  0
 18 22  1  0
 19 20  2  0
 20 21  1  0
 21 22  2  0
 21 26  1  0
 22 23  1  0
 23 24  2  0
 24 25  1  0
 24 28  1  0
 25 26  2  0
 26 27  1  0
 28 29  1  0
 29 30  2  0
 29 31  1  0
M  END
>  <Gold.Gold.Protein.RotatedWaterAtoms>  (328) 


>  <Gold.Id.Protein>  (328) 


>  <Gold.PLP.Chemscore.CHOScore>  (328) 
0.0000

>  <Gold.PLP.Chemscore.Hbond>  (328) 
1.2080

>  <Gold.PLP.Chemscore.Internal.Correction>  (328) 
0.1232

>  <Gold.PLP.Chemscore.Metal>  (328) 
0.0000

>  <Gold.PLP.Fitness>  (328) 
47.7145

>  <Gold.PLP.PLP>  (328) 
-46.0218

>  <Gold.PLP.ligand.clash>  (328) 
0.0000

>  <Gold.PLP.ligand.torsion>  (328) 
1.0272

>  <Gold.PLP.part.buried>  (328) 
-2.2958

>  <Gold.PLP.part.hbond>  (328) 
-4.0214

>  <Gold.PLP.part.metal>  (328) 
0.0000

>  <Gold.PLP.part.nonpolar>  (328) 
-41.4699

>  <Gold.PLP.part.repulsive>  (328) 
0.9524

>  <Gold.Protein.RotatedAtoms>  (328) 


>  <Gold.Protein.RotatedTorsions>  (328) 


>  <Gold.Protein.RotatedWaterAtoms>  (328) 


>  <Gold.Version>  (328) 
5.3.0

>  <PLP.Chemscore.CHOScore>  (328) 


>  <PLP.Chemscore.Hbond>  (328) 


>  <PLP.Chemscore.Internal.Correction>  (328) 


>  <PLP.Chemscore.Metal>  (328) 


>  <PLP.Fitness>  (328) 


>  <PLP.PLP>  (328) 


>  <PLP.ligand.clash>  (328) 


>  <PLP.ligand.torsion>  (328) 


>  <PLP.part.buried>  (328) 


>  <PLP.part.hbond>  (328) 


>  <PLP.part.metal>  (328) 


>  <PLP.part.nonpolar>  (328) 


>  <PLP.part.repulsive>  (328) 


>  <RMSD>  (328) 
0.291955871297

>  <Torsion>  (328) 
171.923704933

>  <TorsionO>  (328) 
6.03609353985

>  <TorsionR>  (328) 
177.959798473

>  <Version>  (328) 


>  <product>  (328) 
53|Compound_23|Compounds_3D_F|sdf|9|dock8|1

>  <rmsd>  (328) 
-1

$$$$
193|32168_281|Aromatic_primary_amines_F|sdf|39|dock6|1
     RDKit          3D

 23 25  0  0  0  0  0  0  0  0999 V2000
   -7.8439  -12.1461   11.8919 C   0  0  0  0  0  0  0  0  0  0  0  0
   -8.5691  -13.4472   11.6781 C   0  0  0  0  0  0  0  0  0  0  0  0
   -9.7886  -13.4981   11.5208 O   0  0  0  0  0  0  0  0  0  0  0  0
   -7.7264  -14.5390   11.7020 N   0  0  0  0  0  0  0  0  0  0  0  0
   -8.1889  -15.8197   11.5323 C   0  0  0  0  0  0  0  0  0  0  0  0
   -9.4747  -16.2039   11.8163 N   0  0  0  0  0  0  0  0  0  0  0  0
   -9.5964  -17.5375   11.5379 C   0  0  0  0  0  0  0  0  0  0  0  0
  -10.6643  -18.4283   11.6415 C   0  0  0  0  0  0  0  0  0  0  0  0
  -10.4051  -19.7586   11.2778 C   0  0  0  0  0  0  0  0  0  0  0  0
   -9.1530  -20.1507   10.7795 C   0  0  0  0  0  0  0  0  0  0  0  0
   -8.1017  -19.2294   10.6839 C   0  0  0  0  0  0  0  0  0  0  0  0
   -8.3349  -17.9032   11.0783 C   0  0  0  0  0  0  0  0  0  0  0  0
   -7.4773  -16.8281   11.0838 N   0  0  0  0  0  0  0  0  0  0  0  0
   -8.8530  -21.7658   10.2429 Cl  0  0  0  0  0  0  0  0  0  0  0  0
  -11.4669  -20.6323   11.3734 O   0  0  0  0  0  0  0  0  0  0  0  0
  -12.5262  -20.4408   10.5053 C   0  0  0  0  0  0  0  0  0  0  0  0
  -13.3188  -19.2846   10.5304 C   0  0  0  0  0  0  0  0  0  0  0  0
  -14.3665  -19.1344    9.6224 C   0  0  0  0  0  0  0  0  0  0  0  0
  -14.6219  -20.1279    8.6796 C   0  0  0  0  0  0  0  0  0  0  0  0
  -13.8238  -21.2756    8.6345 C   0  0  0  0  0  0  0  0  0  0  0  0
  -12.7674  -21.4342    9.5416 C   0  0  0  0  0  0  0  0  0  0  0  0
  -11.7588  -22.8458    9.4996 Cl  0  0  0  0  0  0  0  0  0  0  0  0
  -14.1988  -22.4584    7.4296 Cl  0  0  0  0  0  0  0  0  0  0  0  0
  1  2  1  0
  2  3  2  0
  2  4  1  0
  4  5  1  0
  5  6  1  0
  5 13  2  0
  6  7  1  0
  7  8  2  0
  7 12  1  0
  8  9  1  0
  9 10  2  0
  9 15  1  0
 10 11  1  0
 10 14  1  0
 11 12  2  0
 12 13  1  0
 15 16  1  0
 16 17  2  0
 16 21  1  0
 17 18  1  0
 18 19  2  0
 19 20  1  0
 20 21  2  0
 20 23  1  0
 21 22  1  0
M  END
>  <Gold.Gold.Protein.RotatedWaterAtoms>  (329) 


>  <Gold.Id.Protein>  (329) 


>  <Gold.PLP.Chemscore.CHOScore>  (329) 
0.0000

>  <Gold.PLP.Chemscore.Hbond>  (329) 
1.0000

>  <Gold.PLP.Chemscore.Internal.Correction>  (329) 
0.0086

>  <Gold.PLP.Chemscore.Metal>  (329) 
0.0000

>  <Gold.PLP.Fitness>  (329) 
50.7139

>  <Gold.PLP.PLP>  (329) 
-48.1706

>  <Gold.PLP.ligand.clash>  (329) 
0.0000

>  <Gold.PLP.ligand.torsion>  (329) 
0.2327

>  <Gold.PLP.part.buried>  (329) 
-6.5205

>  <Gold.PLP.part.hbond>  (329) 
-2.0000

>  <Gold.PLP.part.metal>  (329) 
0.0000

>  <Gold.PLP.part.nonpolar>  (329) 
-39.3857

>  <Gold.PLP.part.repulsive>  (329) 
0.3298

>  <Gold.Protein.RotatedAtoms>  (329) 


>  <Gold.Protein.RotatedTorsions>  (329) 


>  <Gold.Protein.RotatedWaterAtoms>  (329) 


>  <Gold.Version>  (329) 
5.3.0

>  <PLP.Chemscore.CHOScore>  (329) 


>  <PLP.Chemscore.Hbond>  (329) 


>  <PLP.Chemscore.Internal.Correction>  (329) 


>  <PLP.Chemscore.Metal>  (329) 


>  <PLP.Fitness>  (329) 


>  <PLP.PLP>  (329) 


>  <PLP.ligand.clash>  (329) 


>  <PLP.ligand.torsion>  (329) 


>  <PLP.part.buried>  (329) 


>  <PLP.part.hbond>  (329) 


>  <PLP.part.metal>  (329) 


>  <PLP.part.nonpolar>  (329) 


>  <PLP.part.repulsive>  (329) 


>  <RMSD>  (329) 
0.439733510035

>  <Torsion>  (329) 
177.672185574

>  <TorsionO>  (329) 
4.31728583372

>  <TorsionR>  (329) 
173.35489974

>  <Version>  (329) 


>  <product>  (329) 
53|Compound_23|Compounds_3D_F|sdf|9|dock8|1

>  <rmsd>  (329) 
-1

$$$$
9|Compound_6|Compounds_3D_F|sdf|3|dock3|1
     RDKit          3D

 11 10  0  0  0  0  0  0  0  0999 V2000
  -13.6741  -20.9934   15.0140 B   0  0  0  0  0  0  0  0  0  0  0  0
  -12.9434  -20.5997   13.6818 C   0  0  0  0  0  0  0  0  0  0  0  0
  -11.8106  -20.9798   13.4757 O   0  0  0  0  0  0  0  0  0  0  0  0
  -13.5757  -19.8384   12.7664 N   0  0  0  0  0  0  0  0  0  0  0  0
  -12.8934  -19.4707   11.5228 C   0  0  0  0  0  0  0  0  0  0  0  0
  -11.6540  -18.6772   11.8459 C   0  0  0  0  0  0  0  0  0  0  0  0
  -11.7462  -17.6210   12.4246 O   0  0  0  0  0  0  0  0  0  0  0  0
  -10.4457  -19.1445   11.4907 O   0  0  0  0  0  0  0  0  0  0  0  0
   -9.3266  -18.2251   11.5953 C   0  0  0  0  0  0  0  0  0  0  0  0
  -12.5036  -20.7385   10.7610 C   0  0  0  0  0  0  0  0  0  0  0  0
  -13.8295  -18.6239   10.6585 C   0  0  0  0  0  0  0  0  0  0  0  0
  1  2  1  0
  2  3  2  0
  2  4  1  0
  4  5  1  0
  5  6  1  0
  5 10  1  0
  5 11  1  0
  6  7  2  0
  6  8  1  0
  8  9  1  0
M  END
>  <Gold.Gold.Protein.RotatedWaterAtoms>  (330) 


>  <Gold.Id.Protein>  (330) 


>  <Gold.PLP.Chemscore.CHOScore>  (330) 
0.0000

>  <Gold.PLP.Chemscore.Hbond>  (330) 
2.9920

>  <Gold.PLP.Chemscore.Internal.Correction>  (330) 
0.0005

>  <Gold.PLP.Chemscore.Metal>  (330) 
0.0000

>  <Gold.PLP.Fitness>  (330) 
29.4402

>  <Gold.PLP.PLP>  (330) 
-20.7259

>  <Gold.PLP.ligand.clash>  (330) 
0.0000

>  <Gold.PLP.ligand.torsion>  (330) 
0.1311

>  <Gold.PLP.part.buried>  (330) 
-4.1401

>  <Gold.PLP.part.hbond>  (330) 
-3.0000

>  <Gold.PLP.part.metal>  (330) 
0.0000

>  <Gold.PLP.part.nonpolar>  (330) 
-13.5698

>  <Gold.PLP.part.repulsive>  (330) 
0.1198

>  <Gold.Protein.RotatedAtoms>  (330) 


>  <Gold.Protein.RotatedTorsions>  (330) 


>  <Gold.Protein.RotatedWaterAtoms>  (330) 


>  <Gold.Version>  (330) 
5.3.0

>  <PLP.Chemscore.CHOScore>  (330) 


>  <PLP.Chemscore.Hbond>  (330) 


>  <PLP.Chemscore.Internal.Correction>  (330) 


>  <PLP.Chemscore.Metal>  (330) 


>  <PLP.Fitness>  (330) 


>  <PLP.PLP>  (330) 


>  <PLP.ligand.clash>  (330) 


>  <PLP.ligand.torsion>  (330) 


>  <PLP.part.buried>  (330) 


>  <PLP.part.hbond>  (330) 


>  <PLP.part.metal>  (330) 


>  <PLP.part.nonpolar>  (330) 


>  <PLP.part.repulsive>  (330) 


>  <Version>  (330) 


$$$$
94|664022_40|Aromatic_carboxylic_acids_F|sdf|24|dock1|1
     RDKit          3D

 12 12  0  0  0  0  0  0  0  0999 V2000
   -8.2596  -17.1212   11.4595 C   0  0  0  0  0  0  0  0  0  0  0  0
   -7.6366  -15.8367   11.6688 N   0  0  0  0  0  0  0  0  0  0  0  0
   -8.3409  -14.6553   11.5719 C   0  0  0  0  0  0  0  0  0  0  0  0
   -9.5296  -14.5547   11.2978 O   0  0  0  0  0  0  0  0  0  0  0  0
   -7.5420  -13.4431   11.8503 C   0  0  0  0  0  0  0  0  0  0  0  0
   -8.1627  -12.1983   11.6738 C   0  0  0  0  0  0  0  0  0  0  0  0
   -7.4390  -11.0301   11.9055 C   0  0  0  0  0  0  0  0  0  0  0  0
   -6.1069  -11.0910   12.3103 C   0  0  0  0  0  0  0  0  0  0  0  0
   -5.4897  -12.3324   12.4853 C   0  0  0  0  0  0  0  0  0  0  0  0
   -6.2035  -13.5136   12.2549 C   0  0  0  0  0  0  0  0  0  0  0  0
   -5.3062  -15.1564   12.5638 Br  0  0  0  0  0  0  0  0  0  0  0  0
   -8.1960   -9.5005   11.6887 Cl  0  0  0  0  0  0  0  0  0  0  0  0
  1  2  1  0
  2  3  1  0
  3  4  2  0
  3  5  1  0
  5  6  2  0
  5 10  1  0
  6  7  1  0
  7  8  2  0
  7 12  1  0
  8  9  1  0
  9 10  2  0
 10 11  1  0
M  END
>  <Gold.Gold.Protein.RotatedWaterAtoms>  (331) 


>  <Gold.Id.Protein>  (331) 


>  <Gold.PLP.Chemscore.CHOScore>  (331) 
0.0000

>  <Gold.PLP.Chemscore.Hbond>  (331) 
0.4160

>  <Gold.PLP.Chemscore.Internal.Correction>  (331) 
0.0004

>  <Gold.PLP.Chemscore.Metal>  (331) 
0.0000

>  <Gold.PLP.Fitness>  (331) 
48.9046

>  <Gold.PLP.PLP>  (331) 
-47.6744

>  <Gold.PLP.ligand.clash>  (331) 
0.0000

>  <Gold.PLP.ligand.torsion>  (331) 
0.0091

>  <Gold.PLP.part.buried>  (331) 
-7.3578

>  <Gold.PLP.part.hbond>  (331) 
-0.5127

>  <Gold.PLP.part.metal>  (331) 
0.0000

>  <Gold.PLP.part.nonpolar>  (331) 
-40.3098

>  <Gold.PLP.part.repulsive>  (331) 
0.1684

>  <Gold.Protein.RotatedAtoms>  (331) 


>  <Gold.Protein.RotatedTorsions>  (331) 


>  <Gold.Protein.RotatedWaterAtoms>  (331) 


>  <Gold.Version>  (331) 
5.3.0

>  <PLP.Chemscore.CHOScore>  (331) 


>  <PLP.Chemscore.Hbond>  (331) 


>  <PLP.Chemscore.Internal.Correction>  (331) 


>  <PLP.Chemscore.Metal>  (331) 


>  <PLP.Fitness>  (331) 


>  <PLP.PLP>  (331) 


>  <PLP.ligand.clash>  (331) 


>  <PLP.ligand.torsion>  (331) 


>  <PLP.part.buried>  (331) 


>  <PLP.part.hbond>  (331) 


>  <PLP.part.metal>  (331) 


>  <PLP.part.nonpolar>  (331) 


>  <PLP.part.repulsive>  (331) 


>  <RMSD>  (331) 
0.30972197429

>  <Torsion>  (331) 
172.929186758

>  <TorsionO>  (331) 
24.4968065243

>  <TorsionR>  (331) 
162.574006718

>  <Version>  (331) 


>  <product>  (331) 
9|Compound_6|Compounds_3D_F|sdf|3|dock3|1

>  <rmsd>  (331) 
-1

$$$$
110|565385_49|Aromatic_carboxylic_acids_F|sdf|29|dock1|1
     RDKit          3D

 13 13  0  0  0  0  0  0  0  0999 V2000
  -10.1118  -17.9021   11.6320 C   0  0  0  0  0  0  0  0  0  0  0  0
   -9.7537  -16.5043   11.6546 N   0  0  0  0  0  0  0  0  0  0  0  0
   -8.4330  -16.1187   11.7930 C   0  0  0  0  0  0  0  0  0  0  0  0
   -7.5159  -16.9298   11.9008 O   0  0  0  0  0  0  0  0  0  0  0  0
   -8.1234  -14.6552   11.8105 C   0  0  0  0  0  0  0  0  0  0  0  0
   -9.0636  -13.6551   11.5375 C   0  0  0  0  0  0  0  0  0  0  0  0
   -8.6966  -12.3009   11.5726 C   0  0  0  0  0  0  0  0  0  0  0  0
   -7.3879  -11.9195   11.8809 C   0  0  0  0  0  0  0  0  0  0  0  0
   -6.4486  -12.9235   12.1551 C   0  0  0  0  0  0  0  0  0  0  0  0
   -6.8098  -14.2750   12.1207 C   0  0  0  0  0  0  0  0  0  0  0  0
   -4.6444  -12.5025   12.5849 Br  0  0  0  0  0  0  0  0  0  0  0  0
   -6.9476  -10.6242   11.9372 O   0  0  0  0  0  0  0  0  0  0  0  0
   -7.9020   -9.5910   11.7256 C   0  0  0  0  0  0  0  0  0  0  0  0
  1  2  1  0
  2  3  1  0
  3  4  2  0
  3  5  1  0
  5  6  2  0
  5 10  1  0
  6  7  1  0
  7  8  2  0
  8  9  1  0
  8 12  1  0
  9 10  2  0
  9 11  1  0
 12 13  1  0
M  END
>  <Gold.Gold.Protein.RotatedWaterAtoms>  (332) 


>  <Gold.Id.Protein>  (332) 


>  <Gold.PLP.Chemscore.CHOScore>  (332) 
0.0000

>  <Gold.PLP.Chemscore.Hbond>  (332) 
1.0000

>  <Gold.PLP.Chemscore.Internal.Correction>  (332) 
0.0000

>  <Gold.PLP.Chemscore.Metal>  (332) 
0.0000

>  <Gold.PLP.Fitness>  (332) 
43.9775

>  <Gold.PLP.PLP>  (332) 
-41.0517

>  <Gold.PLP.ligand.clash>  (332) 
0.0000

>  <Gold.PLP.ligand.torsion>  (332) 
0.0371

>  <Gold.PLP.part.buried>  (332) 
-3.7367

>  <Gold.PLP.part.hbond>  (332) 
-1.0000

>  <Gold.PLP.part.metal>  (332) 
0.0000

>  <Gold.PLP.part.nonpolar>  (332) 
-36.7483

>  <Gold.PLP.part.repulsive>  (332) 
0.4054

>  <Gold.Protein.RotatedAtoms>  (332) 


>  <Gold.Protein.RotatedTorsions>  (332) 


>  <Gold.Protein.RotatedWaterAtoms>  (332) 


>  <Gold.Version>  (332) 
5.3.0

>  <PLP.Chemscore.CHOScore>  (332) 


>  <PLP.Chemscore.Hbond>  (332) 


>  <PLP.Chemscore.Internal.Correction>  (332) 


>  <PLP.Chemscore.Metal>  (332) 


>  <PLP.Fitness>  (332) 


>  <PLP.PLP>  (332) 


>  <PLP.ligand.clash>  (332) 


>  <PLP.ligand.torsion>  (332) 


>  <PLP.part.buried>  (332) 


>  <PLP.part.hbond>  (332) 


>  <PLP.part.metal>  (332) 


>  <PLP.part.nonpolar>  (332) 


>  <PLP.part.repulsive>  (332) 


>  <RMSD>  (332) 
0.319376411377

>  <Torsion>  (332) 
169.460450784

>  <TorsionO>  (332) 
9.7963905484

>  <TorsionR>  (332) 
179.256841332

>  <Version>  (332) 


>  <product>  (332) 
9|Compound_6|Compounds_3D_F|sdf|3|dock3|1

>  <rmsd>  (332) 
-1

$$$$
128|137677_56|Aromatic_carboxylic_acids_F|sdf|33|dock1|1
     RDKit          3D

 11 11  0  0  0  0  0  0  0  0999 V2000
   -8.6116  -16.1544   11.8887 C   0  0  0  0  0  0  0  0  0  0  0  0
   -7.9978  -14.8484   11.9215 N   0  0  0  0  0  0  0  0  0  0  0  0
   -8.7778  -13.7008   11.8756 C   0  0  0  0  0  0  0  0  0  0  0  0
  -10.0002  -13.7896   11.8139 O   0  0  0  0  0  0  0  0  0  0  0  0
   -8.0808  -12.3609   11.9017 C   0  0  0  0  0  0  0  0  0  0  0  0
   -8.7916  -11.1851   11.5813 C   0  0  0  0  0  0  0  0  0  0  0  0
   -8.1781   -9.9267   11.5989 C   0  0  0  0  0  0  0  0  0  0  0  0
   -6.8391   -9.8089   11.9369 C   0  0  0  0  0  0  0  0  0  0  0  0
   -6.1124  -10.9502   12.2575 C   0  0  0  0  0  0  0  0  0  0  0  0
   -6.7171  -12.2196   12.2428 C   0  0  0  0  0  0  0  0  0  0  0  0
   -5.5419  -13.6455   12.7121 Br  0  0  0  0  0  0  0  0  0  0  0  0
  1  2  1  0
  2  3  1  0
  3  4  2  0
  3  5  1  0
  5  6  2  0
  5 10  1  0
  6  7  1  0
  7  8  2  0
  8  9  1  0
  9 10  2  0
 10 11  1  0
M  END
>  <Gold.Gold.Protein.RotatedWaterAtoms>  (333) 


>  <Gold.Id.Protein>  (333) 


>  <Gold.PLP.Chemscore.CHOScore>  (333) 
0.0000

>  <Gold.PLP.Chemscore.Hbond>  (333) 
1.0000

>  <Gold.PLP.Chemscore.Internal.Correction>  (333) 
0.0000

>  <Gold.PLP.Chemscore.Metal>  (333) 
0.0000

>  <Gold.PLP.Fitness>  (333) 
45.2899

>  <Gold.PLP.PLP>  (333) 
-42.4444

>  <Gold.PLP.ligand.clash>  (333) 
0.0000

>  <Gold.PLP.ligand.torsion>  (333) 
0.0772

>  <Gold.PLP.part.buried>  (333) 
-6.4690

>  <Gold.PLP.part.hbond>  (333) 
-0.6863

>  <Gold.PLP.part.metal>  (333) 
0.0000

>  <Gold.PLP.part.nonpolar>  (333) 
-34.8280

>  <Gold.PLP.part.repulsive>  (333) 
0.1963

>  <Gold.Protein.RotatedAtoms>  (333) 


>  <Gold.Protein.RotatedTorsions>  (333) 


>  <Gold.Protein.RotatedWaterAtoms>  (333) 


>  <Gold.Version>  (333) 
5.3.0

>  <PLP.Chemscore.CHOScore>  (333) 


>  <PLP.Chemscore.Hbond>  (333) 


>  <PLP.Chemscore.Internal.Correction>  (333) 


>  <PLP.Chemscore.Metal>  (333) 


>  <PLP.Fitness>  (333) 


>  <PLP.PLP>  (333) 


>  <PLP.ligand.clash>  (333) 


>  <PLP.ligand.torsion>  (333) 


>  <PLP.part.buried>  (333) 


>  <PLP.part.hbond>  (333) 


>  <PLP.part.metal>  (333) 


>  <PLP.part.nonpolar>  (333) 


>  <PLP.part.repulsive>  (333) 


>  <RMSD>  (333) 
0.428070490903

>  <Torsion>  (333) 
152.444048788

>  <TorsionO>  (333) 
39.0580871276

>  <TorsionR>  (333) 
168.497864085

>  <Version>  (333) 


>  <product>  (333) 
9|Compound_6|Compounds_3D_F|sdf|3|dock3|1

>  <rmsd>  (333) 
-1

$$$$
974|750794_1404|Aromatic_primary_amines_F|sdf|194|dock3|1
     RDKit          3D

 14 14  0  0  0  0  0  0  0  0999 V2000
  -13.6355  -18.1936    9.4145 C   0  0  0  0  0  0  0  0  0  0  0  0
  -13.2544  -19.4497   10.1732 C   0  0  0  0  0  0  0  0  0  0  0  0
  -11.8731  -19.3506   10.5383 O   0  0  0  0  0  0  0  0  0  0  0  0
  -11.6148  -18.5085   11.5823 C   0  0  0  0  0  0  0  0  0  0  0  0
  -12.3947  -18.2810   12.5004 O   0  0  0  0  0  0  0  0  0  0  0  0
  -10.3031  -17.8985   11.4902 C   0  0  0  0  0  0  0  0  0  0  0  0
   -9.1673  -18.4974   10.9931 C   0  0  0  0  0  0  0  0  0  0  0  0
   -8.1448  -17.6055   11.0758 O   0  0  0  0  0  0  0  0  0  0  0  0
   -8.7110  -16.4917   11.6237 C   0  0  0  0  0  0  0  0  0  0  0  0
   -9.9933  -16.6110   11.8915 N   0  0  0  0  0  0  0  0  0  0  0  0
   -7.9611  -15.3718   11.8549 N   0  0  0  0  0  0  0  0  0  0  0  0
   -8.5046  -14.1249   12.0676 C   0  0  0  0  0  0  0  0  0  0  0  0
   -9.6950  -13.8313   12.1035 O   0  0  0  0  0  0  0  0  0  0  0  0
   -7.4448  -13.0785   12.3021 C   0  0  0  0  0  0  0  0  0  0  0  0
  1  2  1  0
  2  3  1  0
  3  4  1  0
  4  5  2  0
  4  6  1  0
  6  7  2  0
  6 10  1  0
  7  8  1  0
  8  9  1  0
  9 10  2  0
  9 11  1  0
 11 12  1  0
 12 13  2  0
 12 14  1  0
M  END
>  <Gold.Gold.Protein.RotatedWaterAtoms>  (334) 


>  <Gold.Id.Protein>  (334) 


>  <Gold.PLP.Chemscore.CHOScore>  (334) 
0.0000

>  <Gold.PLP.Chemscore.Hbond>  (334) 
2.0000

>  <Gold.PLP.Chemscore.Internal.Correction>  (334) 
0.0053

>  <Gold.PLP.Chemscore.Metal>  (334) 
0.0000

>  <Gold.PLP.Fitness>  (334) 
36.8047

>  <Gold.PLP.PLP>  (334) 
-32.7996

>  <Gold.PLP.ligand.clash>  (334) 
0.0000

>  <Gold.PLP.ligand.torsion>  (334) 
1.0001

>  <Gold.PLP.part.buried>  (334) 
-6.5206

>  <Gold.PLP.part.hbond>  (334) 
-2.9156

>  <Gold.PLP.part.metal>  (334) 
0.0000

>  <Gold.PLP.part.nonpolar>  (334) 
-23.4080

>  <Gold.PLP.part.repulsive>  (334) 
0.3100

>  <Gold.Protein.RotatedAtoms>  (334) 


>  <Gold.Protein.RotatedTorsions>  (334) 


>  <Gold.Protein.RotatedWaterAtoms>  (334) 


>  <Gold.Version>  (334) 
5.3.0

>  <PLP.Chemscore.CHOScore>  (334) 


>  <PLP.Chemscore.Hbond>  (334) 


>  <PLP.Chemscore.Internal.Correction>  (334) 


>  <PLP.Chemscore.Metal>  (334) 


>  <PLP.Fitness>  (334) 


>  <PLP.PLP>  (334) 


>  <PLP.ligand.clash>  (334) 


>  <PLP.ligand.torsion>  (334) 


>  <PLP.part.buried>  (334) 


>  <PLP.part.hbond>  (334) 


>  <PLP.part.metal>  (334) 


>  <PLP.part.nonpolar>  (334) 


>  <PLP.part.repulsive>  (334) 


>  <RMSD>  (334) 
0.499949349045

>  <Torsion>  (334) 
159.973716791

>  <TorsionO>  (334) 
19.1052109979

>  <TorsionR>  (334) 
179.078927789

>  <Version>  (334) 


>  <product>  (334) 
9|Compound_6|Compounds_3D_F|sdf|3|dock3|1

>  <rmsd>  (334) 
-1

$$$$
1884|M3006_1781|Aromatic_primary_amines_F|sdf|361|dock3|1
     RDKit          3D

 31 34  0  0  0  0  0  0  0  0999 V2000
  -14.4210  -19.8971    8.7934 C   0  0  0  0  0  0  0  0  0  0  0  0
  -13.9762  -19.4927   10.1894 C   0  0  0  0  0  0  0  0  0  0  0  0
  -14.1356  -20.6409   11.1817 C   0  0  0  0  0  0  0  0  0  0  0  0
  -13.5197  -20.3070   12.5189 C   0  0  0  0  0  0  0  0  0  0  0  0
  -12.9307  -19.2724   12.7954 O   0  0  0  0  0  0  0  0  0  0  0  0
  -13.7110  -21.3451   13.3845 O   0  0  0  0  0  0  0  0  0  0  0  0
  -12.9425  -21.2698   14.5900 C   0  0  0  0  0  0  0  0  0  0  0  0
  -12.8849  -22.6189   15.2889 C   0  0  0  0  0  0  0  0  0  0  0  0
  -11.6552  -22.4172   16.1494 C   0  0  0  0  0  0  0  0  0  0  0  0
  -11.2420  -23.7410   16.7624 C   0  0  0  0  0  0  0  0  0  0  0  0
  -12.3024  -24.2223   17.5862 O   0  0  0  0  0  0  0  0  0  0  0  0
  -13.7888  -24.3384   16.9603 P   0  0  0  0  0  0  0  0  0  0  0  0
  -14.8775  -24.6795   17.9243 O   0  0  0  0  0  0  0  0  0  0  0  0
  -13.9839  -22.9641   16.1174 O   0  0  0  0  0  0  0  0  0  0  0  0
  -13.5991  -25.4435   15.8075 O   0  0  0  0  0  0  0  0  0  0  0  0
  -10.6922  -21.8161   15.2889 O   0  0  0  0  0  0  0  0  0  0  0  0
  -11.4338  -20.9664   14.3653 C   0  0  0  0  0  0  0  0  0  0  0  0
  -10.9052  -21.2017   13.0342 N   0  0  0  0  0  0  0  0  0  0  0  0
  -10.7814  -22.4114   12.4013 C   0  0  0  0  0  0  0  0  0  0  0  0
  -10.2640  -22.2918   11.1953 N   0  0  0  0  0  0  0  0  0  0  0  0
  -10.0274  -20.9476   11.0424 C   0  0  0  0  0  0  0  0  0  0  0  0
  -10.4203  -20.2487   12.1733 C   0  0  0  0  0  0  0  0  0  0  0  0
  -10.3338  -18.9216   12.3641 N   0  0  0  0  0  0  0  0  0  0  0  0
   -9.8057  -18.2730   11.3024 C   0  0  0  0  0  0  0  0  0  0  0  0
   -9.3808  -18.8370   10.1545 N   0  0  0  0  0  0  0  0  0  0  0  0
   -9.4895  -20.1691   10.0244 C   0  0  0  0  0  0  0  0  0  0  0  0
   -9.0330  -20.6622    8.8349 O   0  0  0  0  0  0  0  0  0  0  0  0
   -9.7222  -16.8901   11.4793 N   0  0  0  0  0  0  0  0  0  0  0  0
   -8.5796  -16.1798   11.7761 C   0  0  0  0  0  0  0  0  0  0  0  0
   -7.4445  -16.6221   11.9131 O   0  0  0  0  0  0  0  0  0  0  0  0
   -8.8524  -14.7024   11.8973 C   0  0  0  0  0  0  0  0  0  0  0  0
  1  2  1  0
  2  3  1  0
  3  4  1  0
  4  5  2  0
  4  6  1  0
  6  7  1  0
  7  8  1  0
  7 17  1  0
  8  9  1  0
  8 14  1  0
  9 10  1  0
  9 16  1  0
 10 11  1  0
 11 12  1  0
 12 13  2  0
 12 14  1  0
 12 15  1  0
 16 17  1  0
 17 18  1  0
 18 19  1  0
 18 22  1  0
 19 20  2  0
 20 21  1  0
 21 22  2  0
 21 26  1  0
 22 23  1  0
 23 24  2  0
 24 25  1  0
 24 28  1  0
 25 26  2  0
 26 27  1  0
 28 29  1  0
 29 30  2  0
 29 31  1  0
M  END
>  <Gold.Gold.Protein.RotatedWaterAtoms>  (335) 


>  <Gold.Id.Protein>  (335) 


>  <Gold.PLP.Chemscore.CHOScore>  (335) 
0.0000

>  <Gold.PLP.Chemscore.Hbond>  (335) 
1.2080

>  <Gold.PLP.Chemscore.Internal.Correction>  (335) 
0.1232

>  <Gold.PLP.Chemscore.Metal>  (335) 
0.0000

>  <Gold.PLP.Fitness>  (335) 
47.7145

>  <Gold.PLP.PLP>  (335) 
-46.0218

>  <Gold.PLP.ligand.clash>  (335) 
0.0000

>  <Gold.PLP.ligand.torsion>  (335) 
1.0272

>  <Gold.PLP.part.buried>  (335) 
-2.2958

>  <Gold.PLP.part.hbond>  (335) 
-4.0214

>  <Gold.PLP.part.metal>  (335) 
0.0000

>  <Gold.PLP.part.nonpolar>  (335) 
-41.4699

>  <Gold.PLP.part.repulsive>  (335) 
0.9524

>  <Gold.Protein.RotatedAtoms>  (335) 


>  <Gold.Protein.RotatedTorsions>  (335) 


>  <Gold.Protein.RotatedWaterAtoms>  (335) 


>  <Gold.Version>  (335) 
5.3.0

>  <PLP.Chemscore.CHOScore>  (335) 


>  <PLP.Chemscore.Hbond>  (335) 


>  <PLP.Chemscore.Internal.Correction>  (335) 


>  <PLP.Chemscore.Metal>  (335) 


>  <PLP.Fitness>  (335) 


>  <PLP.PLP>  (335) 


>  <PLP.ligand.clash>  (335) 


>  <PLP.ligand.torsion>  (335) 


>  <PLP.part.buried>  (335) 


>  <PLP.part.hbond>  (335) 


>  <PLP.part.metal>  (335) 


>  <PLP.part.nonpolar>  (335) 


>  <PLP.part.repulsive>  (335) 


>  <RMSD>  (335) 
0.291955871297

>  <Torsion>  (335) 
171.923704933

>  <TorsionO>  (335) 
6.03609353985

>  <TorsionR>  (335) 
177.959798473

>  <Version>  (335) 


>  <product>  (335) 
9|Compound_6|Compounds_3D_F|sdf|3|dock3|1

>  <rmsd>  (335) 
-1

$$$$
193|32168_281|Aromatic_primary_amines_F|sdf|39|dock6|1
     RDKit          3D

 23 25  0  0  0  0  0  0  0  0999 V2000
   -7.8439  -12.1461   11.8919 C   0  0  0  0  0  0  0  0  0  0  0  0
   -8.5691  -13.4472   11.6781 C   0  0  0  0  0  0  0  0  0  0  0  0
   -9.7886  -13.4981   11.5208 O   0  0  0  0  0  0  0  0  0  0  0  0
   -7.7264  -14.5390   11.7020 N   0  0  0  0  0  0  0  0  0  0  0  0
   -8.1889  -15.8197   11.5323 C   0  0  0  0  0  0  0  0  0  0  0  0
   -9.4747  -16.2039   11.8163 N   0  0  0  0  0  0  0  0  0  0  0  0
   -9.5964  -17.5375   11.5379 C   0  0  0  0  0  0  0  0  0  0  0  0
  -10.6643  -18.4283   11.6415 C   0  0  0  0  0  0  0  0  0  0  0  0
  -10.4051  -19.7586   11.2778 C   0  0  0  0  0  0  0  0  0  0  0  0
   -9.1530  -20.1507   10.7795 C   0  0  0  0  0  0  0  0  0  0  0  0
   -8.1017  -19.2294   10.6839 C   0  0  0  0  0  0  0  0  0  0  0  0
   -8.3349  -17.9032   11.0783 C   0  0  0  0  0  0  0  0  0  0  0  0
   -7.4773  -16.8281   11.0838 N   0  0  0  0  0  0  0  0  0  0  0  0
   -8.8530  -21.7658   10.2429 Cl  0  0  0  0  0  0  0  0  0  0  0  0
  -11.4669  -20.6323   11.3734 O   0  0  0  0  0  0  0  0  0  0  0  0
  -12.5262  -20.4408   10.5053 C   0  0  0  0  0  0  0  0  0  0  0  0
  -13.3188  -19.2846   10.5304 C   0  0  0  0  0  0  0  0  0  0  0  0
  -14.3665  -19.1344    9.6224 C   0  0  0  0  0  0  0  0  0  0  0  0
  -14.6219  -20.1279    8.6796 C   0  0  0  0  0  0  0  0  0  0  0  0
  -13.8238  -21.2756    8.6345 C   0  0  0  0  0  0  0  0  0  0  0  0
  -12.7674  -21.4342    9.5416 C   0  0  0  0  0  0  0  0  0  0  0  0
  -11.7588  -22.8458    9.4996 Cl  0  0  0  0  0  0  0  0  0  0  0  0
  -14.1988  -22.4584    7.4296 Cl  0  0  0  0  0  0  0  0  0  0  0  0
  1  2  1  0
  2  3  2  0
  2  4  1  0
  4  5  1  0
  5  6  1  0
  5 13  2  0
  6  7  1  0
  7  8  2  0
  7 12  1  0
  8  9  1  0
  9 10  2  0
  9 15  1  0
 10 11  1  0
 10 14  1  0
 11 12  2  0
 12 13  1  0
 15 16  1  0
 16 17  2  0
 16 21  1  0
 17 18  1  0
 18 19  2  0
 19 20  1  0
 20 21  2  0
 20 23  1  0
 21 22  1  0
M  END
>  <Gold.Gold.Protein.RotatedWaterAtoms>  (336) 


>  <Gold.Id.Protein>  (336) 


>  <Gold.PLP.Chemscore.CHOScore>  (336) 
0.0000

>  <Gold.PLP.Chemscore.Hbond>  (336) 
1.0000

>  <Gold.PLP.Chemscore.Internal.Correction>  (336) 
0.0086

>  <Gold.PLP.Chemscore.Metal>  (336) 
0.0000

>  <Gold.PLP.Fitness>  (336) 
50.7139

>  <Gold.PLP.PLP>  (336) 
-48.1706

>  <Gold.PLP.ligand.clash>  (336) 
0.0000

>  <Gold.PLP.ligand.torsion>  (336) 
0.2327

>  <Gold.PLP.part.buried>  (336) 
-6.5205

>  <Gold.PLP.part.hbond>  (336) 
-2.0000

>  <Gold.PLP.part.metal>  (336) 
0.0000

>  <Gold.PLP.part.nonpolar>  (336) 
-39.3857

>  <Gold.PLP.part.repulsive>  (336) 
0.3298

>  <Gold.Protein.RotatedAtoms>  (336) 


>  <Gold.Protein.RotatedTorsions>  (336) 


>  <Gold.Protein.RotatedWaterAtoms>  (336) 


>  <Gold.Version>  (336) 
5.3.0

>  <PLP.Chemscore.CHOScore>  (336) 


>  <PLP.Chemscore.Hbond>  (336) 


>  <PLP.Chemscore.Internal.Correction>  (336) 


>  <PLP.Chemscore.Metal>  (336) 


>  <PLP.Fitness>  (336) 


>  <PLP.PLP>  (336) 


>  <PLP.ligand.clash>  (336) 


>  <PLP.ligand.torsion>  (336) 


>  <PLP.part.buried>  (336) 


>  <PLP.part.hbond>  (336) 


>  <PLP.part.metal>  (336) 


>  <PLP.part.nonpolar>  (336) 


>  <PLP.part.repulsive>  (336) 


>  <RMSD>  (336) 
0.439733510035

>  <Torsion>  (336) 
177.672185574

>  <TorsionO>  (336) 
4.31728583372

>  <TorsionR>  (336) 
173.35489974

>  <Version>  (336) 


>  <product>  (336) 
9|Compound_6|Compounds_3D_F|sdf|3|dock3|1

>  <rmsd>  (336) 
-1

$$$$
95|Compound_34|Compounds_3D_F|sdf|15|dock6|1
     RDKit          3D

 10  9  0  0  0  0  0  0  0  0999 V2000
   -4.6118  -12.3676   13.2193 O   0  0  0  0  0  0  0  0  0  0  0  0
   -5.7501  -12.7196   12.6028 C   0  0  0  0  0  0  0  0  0  0  0  0
   -6.4648  -11.8717   12.1213 O   0  0  0  0  0  0  0  0  0  0  0  0
   -6.1393  -14.1727   12.5107 C   0  0  0  0  0  0  0  0  0  0  0  0
   -5.1675  -14.8879   11.6796 N   0  0  0  0  0  0  0  0  0  0  0  0
   -5.0466  -16.2263   11.7842 C   0  0  0  0  0  0  0  0  0  0  0  0
   -5.7415  -16.8386   12.5662 O   0  0  0  0  0  0  0  0  0  0  0  0
   -4.0049  -16.9916   10.8939 B   0  0  0  0  0  0  0  0  0  0  0  0
   -7.5302  -14.2898   11.8836 C   0  0  0  0  0  0  0  0  0  0  0  0
   -8.5096  -13.8011   12.8024 O   0  0  0  0  0  0  0  0  0  0  0  0
  1  2  1  0
  2  3  2  0
  2  4  1  0
  4  5  1  0
  4  9  1  0
  5  6  1  0
  6  7  2  0
  6  8  1  0
  9 10  1  0
M  END
>  <Gold.Gold.Protein.RotatedWaterAtoms>  (337) 


>  <Gold.Id.Protein>  (337) 


>  <Gold.PLP.Chemscore.CHOScore>  (337) 
0.0000

>  <Gold.PLP.Chemscore.Hbond>  (337) 
2.6844

>  <Gold.PLP.Chemscore.Internal.Correction>  (337) 
0.0005

>  <Gold.PLP.Chemscore.Metal>  (337) 
0.0000

>  <Gold.PLP.Fitness>  (337) 
35.2084

>  <Gold.PLP.PLP>  (337) 
-27.9579

>  <Gold.PLP.ligand.clash>  (337) 
0.0000

>  <Gold.PLP.ligand.torsion>  (337) 
0.4016

>  <Gold.PLP.part.buried>  (337) 
-7.7639

>  <Gold.PLP.part.hbond>  (337) 
-5.0000

>  <Gold.PLP.part.metal>  (337) 
0.0000

>  <Gold.PLP.part.nonpolar>  (337) 
-16.1299

>  <Gold.PLP.part.repulsive>  (337) 
0.3428

>  <Gold.Protein.RotatedAtoms>  (337) 


>  <Gold.Protein.RotatedTorsions>  (337) 


>  <Gold.Protein.RotatedWaterAtoms>  (337) 


>  <Gold.Version>  (337) 
5.3.0

>  <PLP.Chemscore.CHOScore>  (337) 


>  <PLP.Chemscore.Hbond>  (337) 


>  <PLP.Chemscore.Internal.Correction>  (337) 


>  <PLP.Chemscore.Metal>  (337) 


>  <PLP.Fitness>  (337) 


>  <PLP.PLP>  (337) 


>  <PLP.ligand.clash>  (337) 


>  <PLP.ligand.torsion>  (337) 


>  <PLP.part.buried>  (337) 


>  <PLP.part.hbond>  (337) 


>  <PLP.part.metal>  (337) 


>  <PLP.part.nonpolar>  (337) 


>  <PLP.part.repulsive>  (337) 


>  <Version>  (337) 


$$$$
94|664022_40|Aromatic_carboxylic_acids_F|sdf|24|dock1|1
     RDKit          3D

 12 12  0  0  0  0  0  0  0  0999 V2000
   -8.2596  -17.1212   11.4595 C   0  0  0  0  0  0  0  0  0  0  0  0
   -7.6366  -15.8367   11.6688 N   0  0  0  0  0  0  0  0  0  0  0  0
   -8.3409  -14.6553   11.5719 C   0  0  0  0  0  0  0  0  0  0  0  0
   -9.5296  -14.5547   11.2978 O   0  0  0  0  0  0  0  0  0  0  0  0
   -7.5420  -13.4431   11.8503 C   0  0  0  0  0  0  0  0  0  0  0  0
   -8.1627  -12.1983   11.6738 C   0  0  0  0  0  0  0  0  0  0  0  0
   -7.4390  -11.0301   11.9055 C   0  0  0  0  0  0  0  0  0  0  0  0
   -6.1069  -11.0910   12.3103 C   0  0  0  0  0  0  0  0  0  0  0  0
   -5.4897  -12.3324   12.4853 C   0  0  0  0  0  0  0  0  0  0  0  0
   -6.2035  -13.5136   12.2549 C   0  0  0  0  0  0  0  0  0  0  0  0
   -5.3062  -15.1564   12.5638 Br  0  0  0  0  0  0  0  0  0  0  0  0
   -8.1960   -9.5005   11.6887 Cl  0  0  0  0  0  0  0  0  0  0  0  0
  1  2  1  0
  2  3  1  0
  3  4  2  0
  3  5  1  0
  5  6  2  0
  5 10  1  0
  6  7  1  0
  7  8  2  0
  7 12  1  0
  8  9  1  0
  9 10  2  0
 10 11  1  0
M  END
>  <Gold.Gold.Protein.RotatedWaterAtoms>  (338) 


>  <Gold.Id.Protein>  (338) 


>  <Gold.PLP.Chemscore.CHOScore>  (338) 
0.0000

>  <Gold.PLP.Chemscore.Hbond>  (338) 
0.4160

>  <Gold.PLP.Chemscore.Internal.Correction>  (338) 
0.0004

>  <Gold.PLP.Chemscore.Metal>  (338) 
0.0000

>  <Gold.PLP.Fitness>  (338) 
48.9046

>  <Gold.PLP.PLP>  (338) 
-47.6744

>  <Gold.PLP.ligand.clash>  (338) 
0.0000

>  <Gold.PLP.ligand.torsion>  (338) 
0.0091

>  <Gold.PLP.part.buried>  (338) 
-7.3578

>  <Gold.PLP.part.hbond>  (338) 
-0.5127

>  <Gold.PLP.part.metal>  (338) 
0.0000

>  <Gold.PLP.part.nonpolar>  (338) 
-40.3098

>  <Gold.PLP.part.repulsive>  (338) 
0.1684

>  <Gold.Protein.RotatedAtoms>  (338) 


>  <Gold.Protein.RotatedTorsions>  (338) 


>  <Gold.Protein.RotatedWaterAtoms>  (338) 


>  <Gold.Version>  (338) 
5.3.0

>  <PLP.Chemscore.CHOScore>  (338) 


>  <PLP.Chemscore.Hbond>  (338) 


>  <PLP.Chemscore.Internal.Correction>  (338) 


>  <PLP.Chemscore.Metal>  (338) 


>  <PLP.Fitness>  (338) 


>  <PLP.PLP>  (338) 


>  <PLP.ligand.clash>  (338) 


>  <PLP.ligand.torsion>  (338) 


>  <PLP.part.buried>  (338) 


>  <PLP.part.hbond>  (338) 


>  <PLP.part.metal>  (338) 


>  <PLP.part.nonpolar>  (338) 


>  <PLP.part.repulsive>  (338) 


>  <RMSD>  (338) 
0.30972197429

>  <Torsion>  (338) 
172.929186758

>  <TorsionO>  (338) 
24.4968065243

>  <TorsionR>  (338) 
162.574006718

>  <Version>  (338) 


>  <product>  (338) 
95|Compound_34|Compounds_3D_F|sdf|15|dock6|1

>  <rmsd>  (338) 
-1

$$$$
110|565385_49|Aromatic_carboxylic_acids_F|sdf|29|dock1|1
     RDKit          3D

 13 13  0  0  0  0  0  0  0  0999 V2000
  -10.1118  -17.9021   11.6320 C   0  0  0  0  0  0  0  0  0  0  0  0
   -9.7537  -16.5043   11.6546 N   0  0  0  0  0  0  0  0  0  0  0  0
   -8.4330  -16.1187   11.7930 C   0  0  0  0  0  0  0  0  0  0  0  0
   -7.5159  -16.9298   11.9008 O   0  0  0  0  0  0  0  0  0  0  0  0
   -8.1234  -14.6552   11.8105 C   0  0  0  0  0  0  0  0  0  0  0  0
   -9.0636  -13.6551   11.5375 C   0  0  0  0  0  0  0  0  0  0  0  0
   -8.6966  -12.3009   11.5726 C   0  0  0  0  0  0  0  0  0  0  0  0
   -7.3879  -11.9195   11.8809 C   0  0  0  0  0  0  0  0  0  0  0  0
   -6.4486  -12.9235   12.1551 C   0  0  0  0  0  0  0  0  0  0  0  0
   -6.8098  -14.2750   12.1207 C   0  0  0  0  0  0  0  0  0  0  0  0
   -4.6444  -12.5025   12.5849 Br  0  0  0  0  0  0  0  0  0  0  0  0
   -6.9476  -10.6242   11.9372 O   0  0  0  0  0  0  0  0  0  0  0  0
   -7.9020   -9.5910   11.7256 C   0  0  0  0  0  0  0  0  0  0  0  0
  1  2  1  0
  2  3  1  0
  3  4  2  0
  3  5  1  0
  5  6  2  0
  5 10  1  0
  6  7  1  0
  7  8  2  0
  8  9  1  0
  8 12  1  0
  9 10  2  0
  9 11  1  0
 12 13  1  0
M  END
>  <Gold.Gold.Protein.RotatedWaterAtoms>  (339) 


>  <Gold.Id.Protein>  (339) 


>  <Gold.PLP.Chemscore.CHOScore>  (339) 
0.0000

>  <Gold.PLP.Chemscore.Hbond>  (339) 
1.0000

>  <Gold.PLP.Chemscore.Internal.Correction>  (339) 
0.0000

>  <Gold.PLP.Chemscore.Metal>  (339) 
0.0000

>  <Gold.PLP.Fitness>  (339) 
43.9775

>  <Gold.PLP.PLP>  (339) 
-41.0517

>  <Gold.PLP.ligand.clash>  (339) 
0.0000

>  <Gold.PLP.ligand.torsion>  (339) 
0.0371

>  <Gold.PLP.part.buried>  (339) 
-3.7367

>  <Gold.PLP.part.hbond>  (339) 
-1.0000

>  <Gold.PLP.part.metal>  (339) 
0.0000

>  <Gold.PLP.part.nonpolar>  (339) 
-36.7483

>  <Gold.PLP.part.repulsive>  (339) 
0.4054

>  <Gold.Protein.RotatedAtoms>  (339) 


>  <Gold.Protein.RotatedTorsions>  (339) 


>  <Gold.Protein.RotatedWaterAtoms>  (339) 


>  <Gold.Version>  (339) 
5.3.0

>  <PLP.Chemscore.CHOScore>  (339) 


>  <PLP.Chemscore.Hbond>  (339) 


>  <PLP.Chemscore.Internal.Correction>  (339) 


>  <PLP.Chemscore.Metal>  (339) 


>  <PLP.Fitness>  (339) 


>  <PLP.PLP>  (339) 


>  <PLP.ligand.clash>  (339) 


>  <PLP.ligand.torsion>  (339) 


>  <PLP.part.buried>  (339) 


>  <PLP.part.hbond>  (339) 


>  <PLP.part.metal>  (339) 


>  <PLP.part.nonpolar>  (339) 


>  <PLP.part.repulsive>  (339) 


>  <RMSD>  (339) 
0.319376411377

>  <Torsion>  (339) 
169.460450784

>  <TorsionO>  (339) 
9.7963905484

>  <TorsionR>  (339) 
179.256841332

>  <Version>  (339) 


>  <product>  (339) 
95|Compound_34|Compounds_3D_F|sdf|15|dock6|1

>  <rmsd>  (339) 
-1

$$$$
128|137677_56|Aromatic_carboxylic_acids_F|sdf|33|dock1|1
     RDKit          3D

 11 11  0  0  0  0  0  0  0  0999 V2000
   -8.6116  -16.1544   11.8887 C   0  0  0  0  0  0  0  0  0  0  0  0
   -7.9978  -14.8484   11.9215 N   0  0  0  0  0  0  0  0  0  0  0  0
   -8.7778  -13.7008   11.8756 C   0  0  0  0  0  0  0  0  0  0  0  0
  -10.0002  -13.7896   11.8139 O   0  0  0  0  0  0  0  0  0  0  0  0
   -8.0808  -12.3609   11.9017 C   0  0  0  0  0  0  0  0  0  0  0  0
   -8.7916  -11.1851   11.5813 C   0  0  0  0  0  0  0  0  0  0  0  0
   -8.1781   -9.9267   11.5989 C   0  0  0  0  0  0  0  0  0  0  0  0
   -6.8391   -9.8089   11.9369 C   0  0  0  0  0  0  0  0  0  0  0  0
   -6.1124  -10.9502   12.2575 C   0  0  0  0  0  0  0  0  0  0  0  0
   -6.7171  -12.2196   12.2428 C   0  0  0  0  0  0  0  0  0  0  0  0
   -5.5419  -13.6455   12.7121 Br  0  0  0  0  0  0  0  0  0  0  0  0
  1  2  1  0
  2  3  1  0
  3  4  2  0
  3  5  1  0
  5  6  2  0
  5 10  1  0
  6  7  1  0
  7  8  2  0
  8  9  1  0
  9 10  2  0
 10 11  1  0
M  END
>  <Gold.Gold.Protein.RotatedWaterAtoms>  (340) 


>  <Gold.Id.Protein>  (340) 


>  <Gold.PLP.Chemscore.CHOScore>  (340) 
0.0000

>  <Gold.PLP.Chemscore.Hbond>  (340) 
1.0000

>  <Gold.PLP.Chemscore.Internal.Correction>  (340) 
0.0000

>  <Gold.PLP.Chemscore.Metal>  (340) 
0.0000

>  <Gold.PLP.Fitness>  (340) 
45.2899

>  <Gold.PLP.PLP>  (340) 
-42.4444

>  <Gold.PLP.ligand.clash>  (340) 
0.0000

>  <Gold.PLP.ligand.torsion>  (340) 
0.0772

>  <Gold.PLP.part.buried>  (340) 
-6.4690

>  <Gold.PLP.part.hbond>  (340) 
-0.6863

>  <Gold.PLP.part.metal>  (340) 
0.0000

>  <Gold.PLP.part.nonpolar>  (340) 
-34.8280

>  <Gold.PLP.part.repulsive>  (340) 
0.1963

>  <Gold.Protein.RotatedAtoms>  (340) 


>  <Gold.Protein.RotatedTorsions>  (340) 


>  <Gold.Protein.RotatedWaterAtoms>  (340) 


>  <Gold.Version>  (340) 
5.3.0

>  <PLP.Chemscore.CHOScore>  (340) 


>  <PLP.Chemscore.Hbond>  (340) 


>  <PLP.Chemscore.Internal.Correction>  (340) 


>  <PLP.Chemscore.Metal>  (340) 


>  <PLP.Fitness>  (340) 


>  <PLP.PLP>  (340) 


>  <PLP.ligand.clash>  (340) 


>  <PLP.ligand.torsion>  (340) 


>  <PLP.part.buried>  (340) 


>  <PLP.part.hbond>  (340) 


>  <PLP.part.metal>  (340) 


>  <PLP.part.nonpolar>  (340) 


>  <PLP.part.repulsive>  (340) 


>  <RMSD>  (340) 
0.428070490903

>  <Torsion>  (340) 
152.444048788

>  <TorsionO>  (340) 
39.0580871276

>  <TorsionR>  (340) 
168.497864085

>  <Version>  (340) 


>  <product>  (340) 
95|Compound_34|Compounds_3D_F|sdf|15|dock6|1

>  <rmsd>  (340) 
-1

$$$$
974|750794_1404|Aromatic_primary_amines_F|sdf|194|dock3|1
     RDKit          3D

 14 14  0  0  0  0  0  0  0  0999 V2000
  -13.6355  -18.1936    9.4145 C   0  0  0  0  0  0  0  0  0  0  0  0
  -13.2544  -19.4497   10.1732 C   0  0  0  0  0  0  0  0  0  0  0  0
  -11.8731  -19.3506   10.5383 O   0  0  0  0  0  0  0  0  0  0  0  0
  -11.6148  -18.5085   11.5823 C   0  0  0  0  0  0  0  0  0  0  0  0
  -12.3947  -18.2810   12.5004 O   0  0  0  0  0  0  0  0  0  0  0  0
  -10.3031  -17.8985   11.4902 C   0  0  0  0  0  0  0  0  0  0  0  0
   -9.1673  -18.4974   10.9931 C   0  0  0  0  0  0  0  0  0  0  0  0
   -8.1448  -17.6055   11.0758 O   0  0  0  0  0  0  0  0  0  0  0  0
   -8.7110  -16.4917   11.6237 C   0  0  0  0  0  0  0  0  0  0  0  0
   -9.9933  -16.6110   11.8915 N   0  0  0  0  0  0  0  0  0  0  0  0
   -7.9611  -15.3718   11.8549 N   0  0  0  0  0  0  0  0  0  0  0  0
   -8.5046  -14.1249   12.0676 C   0  0  0  0  0  0  0  0  0  0  0  0
   -9.6950  -13.8313   12.1035 O   0  0  0  0  0  0  0  0  0  0  0  0
   -7.4448  -13.0785   12.3021 C   0  0  0  0  0  0  0  0  0  0  0  0
  1  2  1  0
  2  3  1  0
  3  4  1  0
  4  5  2  0
  4  6  1  0
  6  7  2  0
  6 10  1  0
  7  8  1  0
  8  9  1  0
  9 10  2  0
  9 11  1  0
 11 12  1  0
 12 13  2  0
 12 14  1  0
M  END
>  <Gold.Gold.Protein.RotatedWaterAtoms>  (341) 


>  <Gold.Id.Protein>  (341) 


>  <Gold.PLP.Chemscore.CHOScore>  (341) 
0.0000

>  <Gold.PLP.Chemscore.Hbond>  (341) 
2.0000

>  <Gold.PLP.Chemscore.Internal.Correction>  (341) 
0.0053

>  <Gold.PLP.Chemscore.Metal>  (341) 
0.0000

>  <Gold.PLP.Fitness>  (341) 
36.8047

>  <Gold.PLP.PLP>  (341) 
-32.7996

>  <Gold.PLP.ligand.clash>  (341) 
0.0000

>  <Gold.PLP.ligand.torsion>  (341) 
1.0001

>  <Gold.PLP.part.buried>  (341) 
-6.5206

>  <Gold.PLP.part.hbond>  (341) 
-2.9156

>  <Gold.PLP.part.metal>  (341) 
0.0000

>  <Gold.PLP.part.nonpolar>  (341) 
-23.4080

>  <Gold.PLP.part.repulsive>  (341) 
0.3100

>  <Gold.Protein.RotatedAtoms>  (341) 


>  <Gold.Protein.RotatedTorsions>  (341) 


>  <Gold.Protein.RotatedWaterAtoms>  (341) 


>  <Gold.Version>  (341) 
5.3.0

>  <PLP.Chemscore.CHOScore>  (341) 


>  <PLP.Chemscore.Hbond>  (341) 


>  <PLP.Chemscore.Internal.Correction>  (341) 


>  <PLP.Chemscore.Metal>  (341) 


>  <PLP.Fitness>  (341) 


>  <PLP.PLP>  (341) 


>  <PLP.ligand.clash>  (341) 


>  <PLP.ligand.torsion>  (341) 


>  <PLP.part.buried>  (341) 


>  <PLP.part.hbond>  (341) 


>  <PLP.part.metal>  (341) 


>  <PLP.part.nonpolar>  (341) 


>  <PLP.part.repulsive>  (341) 


>  <RMSD>  (341) 
0.499949349045

>  <Torsion>  (341) 
159.973716791

>  <TorsionO>  (341) 
19.1052109979

>  <TorsionR>  (341) 
179.078927789

>  <Version>  (341) 


>  <product>  (341) 
95|Compound_34|Compounds_3D_F|sdf|15|dock6|1

>  <rmsd>  (341) 
-1

$$$$
1884|M3006_1781|Aromatic_primary_amines_F|sdf|361|dock3|1
     RDKit          3D

 31 34  0  0  0  0  0  0  0  0999 V2000
  -14.4210  -19.8971    8.7934 C   0  0  0  0  0  0  0  0  0  0  0  0
  -13.9762  -19.4927   10.1894 C   0  0  0  0  0  0  0  0  0  0  0  0
  -14.1356  -20.6409   11.1817 C   0  0  0  0  0  0  0  0  0  0  0  0
  -13.5197  -20.3070   12.5189 C   0  0  0  0  0  0  0  0  0  0  0  0
  -12.9307  -19.2724   12.7954 O   0  0  0  0  0  0  0  0  0  0  0  0
  -13.7110  -21.3451   13.3845 O   0  0  0  0  0  0  0  0  0  0  0  0
  -12.9425  -21.2698   14.5900 C   0  0  0  0  0  0  0  0  0  0  0  0
  -12.8849  -22.6189   15.2889 C   0  0  0  0  0  0  0  0  0  0  0  0
  -11.6552  -22.4172   16.1494 C   0  0  0  0  0  0  0  0  0  0  0  0
  -11.2420  -23.7410   16.7624 C   0  0  0  0  0  0  0  0  0  0  0  0
  -12.3024  -24.2223   17.5862 O   0  0  0  0  0  0  0  0  0  0  0  0
  -13.7888  -24.3384   16.9603 P   0  0  0  0  0  0  0  0  0  0  0  0
  -14.8775  -24.6795   17.9243 O   0  0  0  0  0  0  0  0  0  0  0  0
  -13.9839  -22.9641   16.1174 O   0  0  0  0  0  0  0  0  0  0  0  0
  -13.5991  -25.4435   15.8075 O   0  0  0  0  0  0  0  0  0  0  0  0
  -10.6922  -21.8161   15.2889 O   0  0  0  0  0  0  0  0  0  0  0  0
  -11.4338  -20.9664   14.3653 C   0  0  0  0  0  0  0  0  0  0  0  0
  -10.9052  -21.2017   13.0342 N   0  0  0  0  0  0  0  0  0  0  0  0
  -10.7814  -22.4114   12.4013 C   0  0  0  0  0  0  0  0  0  0  0  0
  -10.2640  -22.2918   11.1953 N   0  0  0  0  0  0  0  0  0  0  0  0
  -10.0274  -20.9476   11.0424 C   0  0  0  0  0  0  0  0  0  0  0  0
  -10.4203  -20.2487   12.1733 C   0  0  0  0  0  0  0  0  0  0  0  0
  -10.3338  -18.9216   12.3641 N   0  0  0  0  0  0  0  0  0  0  0  0
   -9.8057  -18.2730   11.3024 C   0  0  0  0  0  0  0  0  0  0  0  0
   -9.3808  -18.8370   10.1545 N   0  0  0  0  0  0  0  0  0  0  0  0
   -9.4895  -20.1691   10.0244 C   0  0  0  0  0  0  0  0  0  0  0  0
   -9.0330  -20.6622    8.8349 O   0  0  0  0  0  0  0  0  0  0  0  0
   -9.7222  -16.8901   11.4793 N   0  0  0  0  0  0  0  0  0  0  0  0
   -8.5796  -16.1798   11.7761 C   0  0  0  0  0  0  0  0  0  0  0  0
   -7.4445  -16.6221   11.9131 O   0  0  0  0  0  0  0  0  0  0  0  0
   -8.8524  -14.7024   11.8973 C   0  0  0  0  0  0  0  0  0  0  0  0
  1  2  1  0
  2  3  1  0
  3  4  1  0
  4  5  2  0
  4  6  1  0
  6  7  1  0
  7  8  1  0
  7 17  1  0
  8  9  1  0
  8 14  1  0
  9 10  1  0
  9 16  1  0
 10 11  1  0
 11 12  1  0
 12 13  2  0
 12 14  1  0
 12 15  1  0
 16 17  1  0
 17 18  1  0
 18 19  1  0
 18 22  1  0
 19 20  2  0
 20 21  1  0
 21 22  2  0
 21 26  1  0
 22 23  1  0
 23 24  2  0
 24 25  1  0
 24 28  1  0
 25 26  2  0
 26 27  1  0
 28 29  1  0
 29 30  2  0
 29 31  1  0
M  END
>  <Gold.Gold.Protein.RotatedWaterAtoms>  (342) 


>  <Gold.Id.Protein>  (342) 


>  <Gold.PLP.Chemscore.CHOScore>  (342) 
0.0000

>  <Gold.PLP.Chemscore.Hbond>  (342) 
1.2080

>  <Gold.PLP.Chemscore.Internal.Correction>  (342) 
0.1232

>  <Gold.PLP.Chemscore.Metal>  (342) 
0.0000

>  <Gold.PLP.Fitness>  (342) 
47.7145

>  <Gold.PLP.PLP>  (342) 
-46.0218

>  <Gold.PLP.ligand.clash>  (342) 
0.0000

>  <Gold.PLP.ligand.torsion>  (342) 
1.0272

>  <Gold.PLP.part.buried>  (342) 
-2.2958

>  <Gold.PLP.part.hbond>  (342) 
-4.0214

>  <Gold.PLP.part.metal>  (342) 
0.0000

>  <Gold.PLP.part.nonpolar>  (342) 
-41.4699

>  <Gold.PLP.part.repulsive>  (342) 
0.9524

>  <Gold.Protein.RotatedAtoms>  (342) 


>  <Gold.Protein.RotatedTorsions>  (342) 


>  <Gold.Protein.RotatedWaterAtoms>  (342) 


>  <Gold.Version>  (342) 
5.3.0

>  <PLP.Chemscore.CHOScore>  (342) 


>  <PLP.Chemscore.Hbond>  (342) 


>  <PLP.Chemscore.Internal.Correction>  (342) 


>  <PLP.Chemscore.Metal>  (342) 


>  <PLP.Fitness>  (342) 


>  <PLP.PLP>  (342) 


>  <PLP.ligand.clash>  (342) 


>  <PLP.ligand.torsion>  (342) 


>  <PLP.part.buried>  (342) 


>  <PLP.part.hbond>  (342) 


>  <PLP.part.metal>  (342) 


>  <PLP.part.nonpolar>  (342) 


>  <PLP.part.repulsive>  (342) 


>  <RMSD>  (342) 
0.291955871297

>  <Torsion>  (342) 
171.923704933

>  <TorsionO>  (342) 
6.03609353985

>  <TorsionR>  (342) 
177.959798473

>  <Version>  (342) 


>  <product>  (342) 
95|Compound_34|Compounds_3D_F|sdf|15|dock6|1

>  <rmsd>  (342) 
-1

$$$$
193|32168_281|Aromatic_primary_amines_F|sdf|39|dock6|1
     RDKit          3D

 23 25  0  0  0  0  0  0  0  0999 V2000
   -7.8439  -12.1461   11.8919 C   0  0  0  0  0  0  0  0  0  0  0  0
   -8.5691  -13.4472   11.6781 C   0  0  0  0  0  0  0  0  0  0  0  0
   -9.7886  -13.4981   11.5208 O   0  0  0  0  0  0  0  0  0  0  0  0
   -7.7264  -14.5390   11.7020 N   0  0  0  0  0  0  0  0  0  0  0  0
   -8.1889  -15.8197   11.5323 C   0  0  0  0  0  0  0  0  0  0  0  0
   -9.4747  -16.2039   11.8163 N   0  0  0  0  0  0  0  0  0  0  0  0
   -9.5964  -17.5375   11.5379 C   0  0  0  0  0  0  0  0  0  0  0  0
  -10.6643  -18.4283   11.6415 C   0  0  0  0  0  0  0  0  0  0  0  0
  -10.4051  -19.7586   11.2778 C   0  0  0  0  0  0  0  0  0  0  0  0
   -9.1530  -20.1507   10.7795 C   0  0  0  0  0  0  0  0  0  0  0  0
   -8.1017  -19.2294   10.6839 C   0  0  0  0  0  0  0  0  0  0  0  0
   -8.3349  -17.9032   11.0783 C   0  0  0  0  0  0  0  0  0  0  0  0
   -7.4773  -16.8281   11.0838 N   0  0  0  0  0  0  0  0  0  0  0  0
   -8.8530  -21.7658   10.2429 Cl  0  0  0  0  0  0  0  0  0  0  0  0
  -11.4669  -20.6323   11.3734 O   0  0  0  0  0  0  0  0  0  0  0  0
  -12.5262  -20.4408   10.5053 C   0  0  0  0  0  0  0  0  0  0  0  0
  -13.3188  -19.2846   10.5304 C   0  0  0  0  0  0  0  0  0  0  0  0
  -14.3665  -19.1344    9.6224 C   0  0  0  0  0  0  0  0  0  0  0  0
  -14.6219  -20.1279    8.6796 C   0  0  0  0  0  0  0  0  0  0  0  0
  -13.8238  -21.2756    8.6345 C   0  0  0  0  0  0  0  0  0  0  0  0
  -12.7674  -21.4342    9.5416 C   0  0  0  0  0  0  0  0  0  0  0  0
  -11.7588  -22.8458    9.4996 Cl  0  0  0  0  0  0  0  0  0  0  0  0
  -14.1988  -22.4584    7.4296 Cl  0  0  0  0  0  0  0  0  0  0  0  0
  1  2  1  0
  2  3  2  0
  2  4  1  0
  4  5  1  0
  5  6  1  0
  5 13  2  0
  6  7  1  0
  7  8  2  0
  7 12  1  0
  8  9  1  0
  9 10  2  0
  9 15  1  0
 10 11  1  0
 10 14  1  0
 11 12  2  0
 12 13  1  0
 15 16  1  0
 16 17  2  0
 16 21  1  0
 17 18  1  0
 18 19  2  0
 19 20  1  0
 20 21  2  0
 20 23  1  0
 21 22  1  0
M  END
>  <Gold.Gold.Protein.RotatedWaterAtoms>  (343) 


>  <Gold.Id.Protein>  (343) 


>  <Gold.PLP.Chemscore.CHOScore>  (343) 
0.0000

>  <Gold.PLP.Chemscore.Hbond>  (343) 
1.0000

>  <Gold.PLP.Chemscore.Internal.Correction>  (343) 
0.0086

>  <Gold.PLP.Chemscore.Metal>  (343) 
0.0000

>  <Gold.PLP.Fitness>  (343) 
50.7139

>  <Gold.PLP.PLP>  (343) 
-48.1706

>  <Gold.PLP.ligand.clash>  (343) 
0.0000

>  <Gold.PLP.ligand.torsion>  (343) 
0.2327

>  <Gold.PLP.part.buried>  (343) 
-6.5205

>  <Gold.PLP.part.hbond>  (343) 
-2.0000

>  <Gold.PLP.part.metal>  (343) 
0.0000

>  <Gold.PLP.part.nonpolar>  (343) 
-39.3857

>  <Gold.PLP.part.repulsive>  (343) 
0.3298

>  <Gold.Protein.RotatedAtoms>  (343) 


>  <Gold.Protein.RotatedTorsions>  (343) 


>  <Gold.Protein.RotatedWaterAtoms>  (343) 


>  <Gold.Version>  (343) 
5.3.0

>  <PLP.Chemscore.CHOScore>  (343) 


>  <PLP.Chemscore.Hbond>  (343) 


>  <PLP.Chemscore.Internal.Correction>  (343) 


>  <PLP.Chemscore.Metal>  (343) 


>  <PLP.Fitness>  (343) 


>  <PLP.PLP>  (343) 


>  <PLP.ligand.clash>  (343) 


>  <PLP.ligand.torsion>  (343) 


>  <PLP.part.buried>  (343) 


>  <PLP.part.hbond>  (343) 


>  <PLP.part.metal>  (343) 


>  <PLP.part.nonpolar>  (343) 


>  <PLP.part.repulsive>  (343) 


>  <RMSD>  (343) 
0.439733510035

>  <Torsion>  (343) 
177.672185574

>  <TorsionO>  (343) 
4.31728583372

>  <TorsionR>  (343) 
173.35489974

>  <Version>  (343) 


>  <product>  (343) 
95|Compound_34|Compounds_3D_F|sdf|15|dock6|1

>  <rmsd>  (343) 
-1

$$$$
5|Compound_3|Compounds_3D_F|sdf|2|dock3|1
     RDKit          3D

  9  8  0  0  0  0  0  0  0  0999 V2000
   -5.1687  -15.3407    9.2422 O   0  0  0  0  0  0  0  0  0  0  0  0
   -5.8930  -16.0048   10.2792 C   0  0  0  0  0  0  0  0  0  0  0  0
   -5.0733  -15.9810   11.5703 C   0  0  0  0  0  0  0  0  0  0  0  0
   -4.7908  -14.5931   11.9443 N   0  0  0  0  0  0  0  0  0  0  0  0
   -5.8039  -13.7198   12.1092 C   0  0  0  0  0  0  0  0  0  0  0  0
   -6.9503  -14.0832   11.9482 O   0  0  0  0  0  0  0  0  0  0  0  0
   -5.5013  -12.2329   12.5106 B   0  0  0  0  0  0  0  0  0  0  0  0
   -5.8664  -16.6588   12.6900 C   0  0  0  0  0  0  0  0  0  0  0  0
   -3.7570  -16.7288   11.3534 C   0  0  0  0  0  0  0  0  0  0  0  0
  1  2  1  0
  2  3  1  0
  3  4  1  0
  3  8  1  0
  3  9  1  0
  4  5  1  0
  5  6  2  0
  5  7  1  0
M  END
>  <Gold.Gold.Protein.RotatedWaterAtoms>  (344) 


>  <Gold.Id.Protein>  (344) 


>  <Gold.PLP.Chemscore.CHOScore>  (344) 
0.0000

>  <Gold.PLP.Chemscore.Hbond>  (344) 
2.2500

>  <Gold.PLP.Chemscore.Internal.Correction>  (344) 
0.0000

>  <Gold.PLP.Chemscore.Metal>  (344) 
0.0000

>  <Gold.PLP.Fitness>  (344) 
32.6309

>  <Gold.PLP.PLP>  (344) 
-25.9325

>  <Gold.PLP.ligand.clash>  (344) 
0.0000

>  <Gold.PLP.ligand.torsion>  (344) 
0.0258

>  <Gold.PLP.part.buried>  (344) 
-4.0397

>  <Gold.PLP.part.hbond>  (344) 
-3.7539

>  <Gold.PLP.part.metal>  (344) 
0.0000

>  <Gold.PLP.part.nonpolar>  (344) 
-18.5059

>  <Gold.PLP.part.repulsive>  (344) 
0.2210

>  <Gold.Protein.RotatedAtoms>  (344) 


>  <Gold.Protein.RotatedTorsions>  (344) 


>  <Gold.Protein.RotatedWaterAtoms>  (344) 


>  <Gold.Version>  (344) 
5.3.0

>  <PLP.Chemscore.CHOScore>  (344) 


>  <PLP.Chemscore.Hbond>  (344) 


>  <PLP.Chemscore.Internal.Correction>  (344) 


>  <PLP.Chemscore.Metal>  (344) 


>  <PLP.Fitness>  (344) 


>  <PLP.PLP>  (344) 


>  <PLP.ligand.clash>  (344) 


>  <PLP.ligand.torsion>  (344) 


>  <PLP.part.buried>  (344) 


>  <PLP.part.hbond>  (344) 


>  <PLP.part.metal>  (344) 


>  <PLP.part.nonpolar>  (344) 


>  <PLP.part.repulsive>  (344) 


>  <Version>  (344) 


$$$$
94|664022_40|Aromatic_carboxylic_acids_F|sdf|24|dock1|1
     RDKit          3D

 12 12  0  0  0  0  0  0  0  0999 V2000
   -8.2596  -17.1212   11.4595 C   0  0  0  0  0  0  0  0  0  0  0  0
   -7.6366  -15.8367   11.6688 N   0  0  0  0  0  0  0  0  0  0  0  0
   -8.3409  -14.6553   11.5719 C   0  0  0  0  0  0  0  0  0  0  0  0
   -9.5296  -14.5547   11.2978 O   0  0  0  0  0  0  0  0  0  0  0  0
   -7.5420  -13.4431   11.8503 C   0  0  0  0  0  0  0  0  0  0  0  0
   -8.1627  -12.1983   11.6738 C   0  0  0  0  0  0  0  0  0  0  0  0
   -7.4390  -11.0301   11.9055 C   0  0  0  0  0  0  0  0  0  0  0  0
   -6.1069  -11.0910   12.3103 C   0  0  0  0  0  0  0  0  0  0  0  0
   -5.4897  -12.3324   12.4853 C   0  0  0  0  0  0  0  0  0  0  0  0
   -6.2035  -13.5136   12.2549 C   0  0  0  0  0  0  0  0  0  0  0  0
   -5.3062  -15.1564   12.5638 Br  0  0  0  0  0  0  0  0  0  0  0  0
   -8.1960   -9.5005   11.6887 Cl  0  0  0  0  0  0  0  0  0  0  0  0
  1  2  1  0
  2  3  1  0
  3  4  2  0
  3  5  1  0
  5  6  2  0
  5 10  1  0
  6  7  1  0
  7  8  2  0
  7 12  1  0
  8  9  1  0
  9 10  2  0
 10 11  1  0
M  END
>  <Gold.Gold.Protein.RotatedWaterAtoms>  (345) 


>  <Gold.Id.Protein>  (345) 


>  <Gold.PLP.Chemscore.CHOScore>  (345) 
0.0000

>  <Gold.PLP.Chemscore.Hbond>  (345) 
0.4160

>  <Gold.PLP.Chemscore.Internal.Correction>  (345) 
0.0004

>  <Gold.PLP.Chemscore.Metal>  (345) 
0.0000

>  <Gold.PLP.Fitness>  (345) 
48.9046

>  <Gold.PLP.PLP>  (345) 
-47.6744

>  <Gold.PLP.ligand.clash>  (345) 
0.0000

>  <Gold.PLP.ligand.torsion>  (345) 
0.0091

>  <Gold.PLP.part.buried>  (345) 
-7.3578

>  <Gold.PLP.part.hbond>  (345) 
-0.5127

>  <Gold.PLP.part.metal>  (345) 
0.0000

>  <Gold.PLP.part.nonpolar>  (345) 
-40.3098

>  <Gold.PLP.part.repulsive>  (345) 
0.1684

>  <Gold.Protein.RotatedAtoms>  (345) 


>  <Gold.Protein.RotatedTorsions>  (345) 


>  <Gold.Protein.RotatedWaterAtoms>  (345) 


>  <Gold.Version>  (345) 
5.3.0

>  <PLP.Chemscore.CHOScore>  (345) 


>  <PLP.Chemscore.Hbond>  (345) 


>  <PLP.Chemscore.Internal.Correction>  (345) 


>  <PLP.Chemscore.Metal>  (345) 


>  <PLP.Fitness>  (345) 


>  <PLP.PLP>  (345) 


>  <PLP.ligand.clash>  (345) 


>  <PLP.ligand.torsion>  (345) 


>  <PLP.part.buried>  (345) 


>  <PLP.part.hbond>  (345) 


>  <PLP.part.metal>  (345) 


>  <PLP.part.nonpolar>  (345) 


>  <PLP.part.repulsive>  (345) 


>  <RMSD>  (345) 
0.30972197429

>  <Torsion>  (345) 
172.929186758

>  <TorsionO>  (345) 
24.4968065243

>  <TorsionR>  (345) 
162.574006718

>  <Version>  (345) 


>  <product>  (345) 
5|Compound_3|Compounds_3D_F|sdf|2|dock3|1

>  <rmsd>  (345) 
-1

$$$$
110|565385_49|Aromatic_carboxylic_acids_F|sdf|29|dock1|1
     RDKit          3D

 13 13  0  0  0  0  0  0  0  0999 V2000
  -10.1118  -17.9021   11.6320 C   0  0  0  0  0  0  0  0  0  0  0  0
   -9.7537  -16.5043   11.6546 N   0  0  0  0  0  0  0  0  0  0  0  0
   -8.4330  -16.1187   11.7930 C   0  0  0  0  0  0  0  0  0  0  0  0
   -7.5159  -16.9298   11.9008 O   0  0  0  0  0  0  0  0  0  0  0  0
   -8.1234  -14.6552   11.8105 C   0  0  0  0  0  0  0  0  0  0  0  0
   -9.0636  -13.6551   11.5375 C   0  0  0  0  0  0  0  0  0  0  0  0
   -8.6966  -12.3009   11.5726 C   0  0  0  0  0  0  0  0  0  0  0  0
   -7.3879  -11.9195   11.8809 C   0  0  0  0  0  0  0  0  0  0  0  0
   -6.4486  -12.9235   12.1551 C   0  0  0  0  0  0  0  0  0  0  0  0
   -6.8098  -14.2750   12.1207 C   0  0  0  0  0  0  0  0  0  0  0  0
   -4.6444  -12.5025   12.5849 Br  0  0  0  0  0  0  0  0  0  0  0  0
   -6.9476  -10.6242   11.9372 O   0  0  0  0  0  0  0  0  0  0  0  0
   -7.9020   -9.5910   11.7256 C   0  0  0  0  0  0  0  0  0  0  0  0
  1  2  1  0
  2  3  1  0
  3  4  2  0
  3  5  1  0
  5  6  2  0
  5 10  1  0
  6  7  1  0
  7  8  2  0
  8  9  1  0
  8 12  1  0
  9 10  2  0
  9 11  1  0
 12 13  1  0
M  END
>  <Gold.Gold.Protein.RotatedWaterAtoms>  (346) 


>  <Gold.Id.Protein>  (346) 


>  <Gold.PLP.Chemscore.CHOScore>  (346) 
0.0000

>  <Gold.PLP.Chemscore.Hbond>  (346) 
1.0000

>  <Gold.PLP.Chemscore.Internal.Correction>  (346) 
0.0000

>  <Gold.PLP.Chemscore.Metal>  (346) 
0.0000

>  <Gold.PLP.Fitness>  (346) 
43.9775

>  <Gold.PLP.PLP>  (346) 
-41.0517

>  <Gold.PLP.ligand.clash>  (346) 
0.0000

>  <Gold.PLP.ligand.torsion>  (346) 
0.0371

>  <Gold.PLP.part.buried>  (346) 
-3.7367

>  <Gold.PLP.part.hbond>  (346) 
-1.0000

>  <Gold.PLP.part.metal>  (346) 
0.0000

>  <Gold.PLP.part.nonpolar>  (346) 
-36.7483

>  <Gold.PLP.part.repulsive>  (346) 
0.4054

>  <Gold.Protein.RotatedAtoms>  (346) 


>  <Gold.Protein.RotatedTorsions>  (346) 


>  <Gold.Protein.RotatedWaterAtoms>  (346) 


>  <Gold.Version>  (346) 
5.3.0

>  <PLP.Chemscore.CHOScore>  (346) 


>  <PLP.Chemscore.Hbond>  (346) 


>  <PLP.Chemscore.Internal.Correction>  (346) 


>  <PLP.Chemscore.Metal>  (346) 


>  <PLP.Fitness>  (346) 


>  <PLP.PLP>  (346) 


>  <PLP.ligand.clash>  (346) 


>  <PLP.ligand.torsion>  (346) 


>  <PLP.part.buried>  (346) 


>  <PLP.part.hbond>  (346) 


>  <PLP.part.metal>  (346) 


>  <PLP.part.nonpolar>  (346) 


>  <PLP.part.repulsive>  (346) 


>  <RMSD>  (346) 
0.319376411377

>  <Torsion>  (346) 
169.460450784

>  <TorsionO>  (346) 
9.7963905484

>  <TorsionR>  (346) 
179.256841332

>  <Version>  (346) 


>  <product>  (346) 
5|Compound_3|Compounds_3D_F|sdf|2|dock3|1

>  <rmsd>  (346) 
-1

$$$$
128|137677_56|Aromatic_carboxylic_acids_F|sdf|33|dock1|1
     RDKit          3D

 11 11  0  0  0  0  0  0  0  0999 V2000
   -8.6116  -16.1544   11.8887 C   0  0  0  0  0  0  0  0  0  0  0  0
   -7.9978  -14.8484   11.9215 N   0  0  0  0  0  0  0  0  0  0  0  0
   -8.7778  -13.7008   11.8756 C   0  0  0  0  0  0  0  0  0  0  0  0
  -10.0002  -13.7896   11.8139 O   0  0  0  0  0  0  0  0  0  0  0  0
   -8.0808  -12.3609   11.9017 C   0  0  0  0  0  0  0  0  0  0  0  0
   -8.7916  -11.1851   11.5813 C   0  0  0  0  0  0  0  0  0  0  0  0
   -8.1781   -9.9267   11.5989 C   0  0  0  0  0  0  0  0  0  0  0  0
   -6.8391   -9.8089   11.9369 C   0  0  0  0  0  0  0  0  0  0  0  0
   -6.1124  -10.9502   12.2575 C   0  0  0  0  0  0  0  0  0  0  0  0
   -6.7171  -12.2196   12.2428 C   0  0  0  0  0  0  0  0  0  0  0  0
   -5.5419  -13.6455   12.7121 Br  0  0  0  0  0  0  0  0  0  0  0  0
  1  2  1  0
  2  3  1  0
  3  4  2  0
  3  5  1  0
  5  6  2  0
  5 10  1  0
  6  7  1  0
  7  8  2  0
  8  9  1  0
  9 10  2  0
 10 11  1  0
M  END
>  <Gold.Gold.Protein.RotatedWaterAtoms>  (347) 


>  <Gold.Id.Protein>  (347) 


>  <Gold.PLP.Chemscore.CHOScore>  (347) 
0.0000

>  <Gold.PLP.Chemscore.Hbond>  (347) 
1.0000

>  <Gold.PLP.Chemscore.Internal.Correction>  (347) 
0.0000

>  <Gold.PLP.Chemscore.Metal>  (347) 
0.0000

>  <Gold.PLP.Fitness>  (347) 
45.2899

>  <Gold.PLP.PLP>  (347) 
-42.4444

>  <Gold.PLP.ligand.clash>  (347) 
0.0000

>  <Gold.PLP.ligand.torsion>  (347) 
0.0772

>  <Gold.PLP.part.buried>  (347) 
-6.4690

>  <Gold.PLP.part.hbond>  (347) 
-0.6863

>  <Gold.PLP.part.metal>  (347) 
0.0000

>  <Gold.PLP.part.nonpolar>  (347) 
-34.8280

>  <Gold.PLP.part.repulsive>  (347) 
0.1963

>  <Gold.Protein.RotatedAtoms>  (347) 


>  <Gold.Protein.RotatedTorsions>  (347) 


>  <Gold.Protein.RotatedWaterAtoms>  (347) 


>  <Gold.Version>  (347) 
5.3.0

>  <PLP.Chemscore.CHOScore>  (347) 


>  <PLP.Chemscore.Hbond>  (347) 


>  <PLP.Chemscore.Internal.Correction>  (347) 


>  <PLP.Chemscore.Metal>  (347) 


>  <PLP.Fitness>  (347) 


>  <PLP.PLP>  (347) 


>  <PLP.ligand.clash>  (347) 


>  <PLP.ligand.torsion>  (347) 


>  <PLP.part.buried>  (347) 


>  <PLP.part.hbond>  (347) 


>  <PLP.part.metal>  (347) 


>  <PLP.part.nonpolar>  (347) 


>  <PLP.part.repulsive>  (347) 


>  <RMSD>  (347) 
0.428070490903

>  <Torsion>  (347) 
152.444048788

>  <TorsionO>  (347) 
39.0580871276

>  <TorsionR>  (347) 
168.497864085

>  <Version>  (347) 


>  <product>  (347) 
5|Compound_3|Compounds_3D_F|sdf|2|dock3|1

>  <rmsd>  (347) 
-1

$$$$
974|750794_1404|Aromatic_primary_amines_F|sdf|194|dock3|1
     RDKit          3D

 14 14  0  0  0  0  0  0  0  0999 V2000
  -13.6355  -18.1936    9.4145 C   0  0  0  0  0  0  0  0  0  0  0  0
  -13.2544  -19.4497   10.1732 C   0  0  0  0  0  0  0  0  0  0  0  0
  -11.8731  -19.3506   10.5383 O   0  0  0  0  0  0  0  0  0  0  0  0
  -11.6148  -18.5085   11.5823 C   0  0  0  0  0  0  0  0  0  0  0  0
  -12.3947  -18.2810   12.5004 O   0  0  0  0  0  0  0  0  0  0  0  0
  -10.3031  -17.8985   11.4902 C   0  0  0  0  0  0  0  0  0  0  0  0
   -9.1673  -18.4974   10.9931 C   0  0  0  0  0  0  0  0  0  0  0  0
   -8.1448  -17.6055   11.0758 O   0  0  0  0  0  0  0  0  0  0  0  0
   -8.7110  -16.4917   11.6237 C   0  0  0  0  0  0  0  0  0  0  0  0
   -9.9933  -16.6110   11.8915 N   0  0  0  0  0  0  0  0  0  0  0  0
   -7.9611  -15.3718   11.8549 N   0  0  0  0  0  0  0  0  0  0  0  0
   -8.5046  -14.1249   12.0676 C   0  0  0  0  0  0  0  0  0  0  0  0
   -9.6950  -13.8313   12.1035 O   0  0  0  0  0  0  0  0  0  0  0  0
   -7.4448  -13.0785   12.3021 C   0  0  0  0  0  0  0  0  0  0  0  0
  1  2  1  0
  2  3  1  0
  3  4  1  0
  4  5  2  0
  4  6  1  0
  6  7  2  0
  6 10  1  0
  7  8  1  0
  8  9  1  0
  9 10  2  0
  9 11  1  0
 11 12  1  0
 12 13  2  0
 12 14  1  0
M  END
>  <Gold.Gold.Protein.RotatedWaterAtoms>  (348) 


>  <Gold.Id.Protein>  (348) 


>  <Gold.PLP.Chemscore.CHOScore>  (348) 
0.0000

>  <Gold.PLP.Chemscore.Hbond>  (348) 
2.0000

>  <Gold.PLP.Chemscore.Internal.Correction>  (348) 
0.0053

>  <Gold.PLP.Chemscore.Metal>  (348) 
0.0000

>  <Gold.PLP.Fitness>  (348) 
36.8047

>  <Gold.PLP.PLP>  (348) 
-32.7996

>  <Gold.PLP.ligand.clash>  (348) 
0.0000

>  <Gold.PLP.ligand.torsion>  (348) 
1.0001

>  <Gold.PLP.part.buried>  (348) 
-6.5206

>  <Gold.PLP.part.hbond>  (348) 
-2.9156

>  <Gold.PLP.part.metal>  (348) 
0.0000

>  <Gold.PLP.part.nonpolar>  (348) 
-23.4080

>  <Gold.PLP.part.repulsive>  (348) 
0.3100

>  <Gold.Protein.RotatedAtoms>  (348) 


>  <Gold.Protein.RotatedTorsions>  (348) 


>  <Gold.Protein.RotatedWaterAtoms>  (348) 


>  <Gold.Version>  (348) 
5.3.0

>  <PLP.Chemscore.CHOScore>  (348) 


>  <PLP.Chemscore.Hbond>  (348) 


>  <PLP.Chemscore.Internal.Correction>  (348) 


>  <PLP.Chemscore.Metal>  (348) 


>  <PLP.Fitness>  (348) 


>  <PLP.PLP>  (348) 


>  <PLP.ligand.clash>  (348) 


>  <PLP.ligand.torsion>  (348) 


>  <PLP.part.buried>  (348) 


>  <PLP.part.hbond>  (348) 


>  <PLP.part.metal>  (348) 


>  <PLP.part.nonpolar>  (348) 


>  <PLP.part.repulsive>  (348) 


>  <RMSD>  (348) 
0.499949349045

>  <Torsion>  (348) 
159.973716791

>  <TorsionO>  (348) 
19.1052109979

>  <TorsionR>  (348) 
179.078927789

>  <Version>  (348) 


>  <product>  (348) 
5|Compound_3|Compounds_3D_F|sdf|2|dock3|1

>  <rmsd>  (348) 
-1

$$$$
1884|M3006_1781|Aromatic_primary_amines_F|sdf|361|dock3|1
     RDKit          3D

 31 34  0  0  0  0  0  0  0  0999 V2000
  -14.4210  -19.8971    8.7934 C   0  0  0  0  0  0  0  0  0  0  0  0
  -13.9762  -19.4927   10.1894 C   0  0  0  0  0  0  0  0  0  0  0  0
  -14.1356  -20.6409   11.1817 C   0  0  0  0  0  0  0  0  0  0  0  0
  -13.5197  -20.3070   12.5189 C   0  0  0  0  0  0  0  0  0  0  0  0
  -12.9307  -19.2724   12.7954 O   0  0  0  0  0  0  0  0  0  0  0  0
  -13.7110  -21.3451   13.3845 O   0  0  0  0  0  0  0  0  0  0  0  0
  -12.9425  -21.2698   14.5900 C   0  0  0  0  0  0  0  0  0  0  0  0
  -12.8849  -22.6189   15.2889 C   0  0  0  0  0  0  0  0  0  0  0  0
  -11.6552  -22.4172   16.1494 C   0  0  0  0  0  0  0  0  0  0  0  0
  -11.2420  -23.7410   16.7624 C   0  0  0  0  0  0  0  0  0  0  0  0
  -12.3024  -24.2223   17.5862 O   0  0  0  0  0  0  0  0  0  0  0  0
  -13.7888  -24.3384   16.9603 P   0  0  0  0  0  0  0  0  0  0  0  0
  -14.8775  -24.6795   17.9243 O   0  0  0  0  0  0  0  0  0  0  0  0
  -13.9839  -22.9641   16.1174 O   0  0  0  0  0  0  0  0  0  0  0  0
  -13.5991  -25.4435   15.8075 O   0  0  0  0  0  0  0  0  0  0  0  0
  -10.6922  -21.8161   15.2889 O   0  0  0  0  0  0  0  0  0  0  0  0
  -11.4338  -20.9664   14.3653 C   0  0  0  0  0  0  0  0  0  0  0  0
  -10.9052  -21.2017   13.0342 N   0  0  0  0  0  0  0  0  0  0  0  0
  -10.7814  -22.4114   12.4013 C   0  0  0  0  0  0  0  0  0  0  0  0
  -10.2640  -22.2918   11.1953 N   0  0  0  0  0  0  0  0  0  0  0  0
  -10.0274  -20.9476   11.0424 C   0  0  0  0  0  0  0  0  0  0  0  0
  -10.4203  -20.2487   12.1733 C   0  0  0  0  0  0  0  0  0  0  0  0
  -10.3338  -18.9216   12.3641 N   0  0  0  0  0  0  0  0  0  0  0  0
   -9.8057  -18.2730   11.3024 C   0  0  0  0  0  0  0  0  0  0  0  0
   -9.3808  -18.8370   10.1545 N   0  0  0  0  0  0  0  0  0  0  0  0
   -9.4895  -20.1691   10.0244 C   0  0  0  0  0  0  0  0  0  0  0  0
   -9.0330  -20.6622    8.8349 O   0  0  0  0  0  0  0  0  0  0  0  0
   -9.7222  -16.8901   11.4793 N   0  0  0  0  0  0  0  0  0  0  0  0
   -8.5796  -16.1798   11.7761 C   0  0  0  0  0  0  0  0  0  0  0  0
   -7.4445  -16.6221   11.9131 O   0  0  0  0  0  0  0  0  0  0  0  0
   -8.8524  -14.7024   11.8973 C   0  0  0  0  0  0  0  0  0  0  0  0
  1  2  1  0
  2  3  1  0
  3  4  1  0
  4  5  2  0
  4  6  1  0
  6  7  1  0
  7  8  1  0
  7 17  1  0
  8  9  1  0
  8 14  1  0
  9 10  1  0
  9 16  1  0
 10 11  1  0
 11 12  1  0
 12 13  2  0
 12 14  1  0
 12 15  1  0
 16 17  1  0
 17 18  1  0
 18 19  1  0
 18 22  1  0
 19 20  2  0
 20 21  1  0
 21 22  2  0
 21 26  1  0
 22 23  1  0
 23 24  2  0
 24 25  1  0
 24 28  1  0
 25 26  2  0
 26 27  1  0
 28 29  1  0
 29 30  2  0
 29 31  1  0
M  END
>  <Gold.Gold.Protein.RotatedWaterAtoms>  (349) 


>  <Gold.Id.Protein>  (349) 


>  <Gold.PLP.Chemscore.CHOScore>  (349) 
0.0000

>  <Gold.PLP.Chemscore.Hbond>  (349) 
1.2080

>  <Gold.PLP.Chemscore.Internal.Correction>  (349) 
0.1232

>  <Gold.PLP.Chemscore.Metal>  (349) 
0.0000

>  <Gold.PLP.Fitness>  (349) 
47.7145

>  <Gold.PLP.PLP>  (349) 
-46.0218

>  <Gold.PLP.ligand.clash>  (349) 
0.0000

>  <Gold.PLP.ligand.torsion>  (349) 
1.0272

>  <Gold.PLP.part.buried>  (349) 
-2.2958

>  <Gold.PLP.part.hbond>  (349) 
-4.0214

>  <Gold.PLP.part.metal>  (349) 
0.0000

>  <Gold.PLP.part.nonpolar>  (349) 
-41.4699

>  <Gold.PLP.part.repulsive>  (349) 
0.9524

>  <Gold.Protein.RotatedAtoms>  (349) 


>  <Gold.Protein.RotatedTorsions>  (349) 


>  <Gold.Protein.RotatedWaterAtoms>  (349) 


>  <Gold.Version>  (349) 
5.3.0

>  <PLP.Chemscore.CHOScore>  (349) 


>  <PLP.Chemscore.Hbond>  (349) 


>  <PLP.Chemscore.Internal.Correction>  (349) 


>  <PLP.Chemscore.Metal>  (349) 


>  <PLP.Fitness>  (349) 


>  <PLP.PLP>  (349) 


>  <PLP.ligand.clash>  (349) 


>  <PLP.ligand.torsion>  (349) 


>  <PLP.part.buried>  (349) 


>  <PLP.part.hbond>  (349) 


>  <PLP.part.metal>  (349) 


>  <PLP.part.nonpolar>  (349) 


>  <PLP.part.repulsive>  (349) 


>  <RMSD>  (349) 
0.291955871297

>  <Torsion>  (349) 
171.923704933

>  <TorsionO>  (349) 
6.03609353985

>  <TorsionR>  (349) 
177.959798473

>  <Version>  (349) 


>  <product>  (349) 
5|Compound_3|Compounds_3D_F|sdf|2|dock3|1

>  <rmsd>  (349) 
-1

$$$$
193|32168_281|Aromatic_primary_amines_F|sdf|39|dock6|1
     RDKit          3D

 23 25  0  0  0  0  0  0  0  0999 V2000
   -7.8439  -12.1461   11.8919 C   0  0  0  0  0  0  0  0  0  0  0  0
   -8.5691  -13.4472   11.6781 C   0  0  0  0  0  0  0  0  0  0  0  0
   -9.7886  -13.4981   11.5208 O   0  0  0  0  0  0  0  0  0  0  0  0
   -7.7264  -14.5390   11.7020 N   0  0  0  0  0  0  0  0  0  0  0  0
   -8.1889  -15.8197   11.5323 C   0  0  0  0  0  0  0  0  0  0  0  0
   -9.4747  -16.2039   11.8163 N   0  0  0  0  0  0  0  0  0  0  0  0
   -9.5964  -17.5375   11.5379 C   0  0  0  0  0  0  0  0  0  0  0  0
  -10.6643  -18.4283   11.6415 C   0  0  0  0  0  0  0  0  0  0  0  0
  -10.4051  -19.7586   11.2778 C   0  0  0  0  0  0  0  0  0  0  0  0
   -9.1530  -20.1507   10.7795 C   0  0  0  0  0  0  0  0  0  0  0  0
   -8.1017  -19.2294   10.6839 C   0  0  0  0  0  0  0  0  0  0  0  0
   -8.3349  -17.9032   11.0783 C   0  0  0  0  0  0  0  0  0  0  0  0
   -7.4773  -16.8281   11.0838 N   0  0  0  0  0  0  0  0  0  0  0  0
   -8.8530  -21.7658   10.2429 Cl  0  0  0  0  0  0  0  0  0  0  0  0
  -11.4669  -20.6323   11.3734 O   0  0  0  0  0  0  0  0  0  0  0  0
  -12.5262  -20.4408   10.5053 C   0  0  0  0  0  0  0  0  0  0  0  0
  -13.3188  -19.2846   10.5304 C   0  0  0  0  0  0  0  0  0  0  0  0
  -14.3665  -19.1344    9.6224 C   0  0  0  0  0  0  0  0  0  0  0  0
  -14.6219  -20.1279    8.6796 C   0  0  0  0  0  0  0  0  0  0  0  0
  -13.8238  -21.2756    8.6345 C   0  0  0  0  0  0  0  0  0  0  0  0
  -12.7674  -21.4342    9.5416 C   0  0  0  0  0  0  0  0  0  0  0  0
  -11.7588  -22.8458    9.4996 Cl  0  0  0  0  0  0  0  0  0  0  0  0
  -14.1988  -22.4584    7.4296 Cl  0  0  0  0  0  0  0  0  0  0  0  0
  1  2  1  0
  2  3  2  0
  2  4  1  0
  4  5  1  0
  5  6  1  0
  5 13  2  0
  6  7  1  0
  7  8  2  0
  7 12  1  0
  8  9  1  0
  9 10  2  0
  9 15  1  0
 10 11  1  0
 10 14  1  0
 11 12  2  0
 12 13  1  0
 15 16  1  0
 16 17  2  0
 16 21  1  0
 17 18  1  0
 18 19  2  0
 19 20  1  0
 20 21  2  0
 20 23  1  0
 21 22  1  0
M  END
>  <Gold.Gold.Protein.RotatedWaterAtoms>  (350) 


>  <Gold.Id.Protein>  (350) 


>  <Gold.PLP.Chemscore.CHOScore>  (350) 
0.0000

>  <Gold.PLP.Chemscore.Hbond>  (350) 
1.0000

>  <Gold.PLP.Chemscore.Internal.Correction>  (350) 
0.0086

>  <Gold.PLP.Chemscore.Metal>  (350) 
0.0000

>  <Gold.PLP.Fitness>  (350) 
50.7139

>  <Gold.PLP.PLP>  (350) 
-48.1706

>  <Gold.PLP.ligand.clash>  (350) 
0.0000

>  <Gold.PLP.ligand.torsion>  (350) 
0.2327

>  <Gold.PLP.part.buried>  (350) 
-6.5205

>  <Gold.PLP.part.hbond>  (350) 
-2.0000

>  <Gold.PLP.part.metal>  (350) 
0.0000

>  <Gold.PLP.part.nonpolar>  (350) 
-39.3857

>  <Gold.PLP.part.repulsive>  (350) 
0.3298

>  <Gold.Protein.RotatedAtoms>  (350) 


>  <Gold.Protein.RotatedTorsions>  (350) 


>  <Gold.Protein.RotatedWaterAtoms>  (350) 


>  <Gold.Version>  (350) 
5.3.0

>  <PLP.Chemscore.CHOScore>  (350) 


>  <PLP.Chemscore.Hbond>  (350) 


>  <PLP.Chemscore.Internal.Correction>  (350) 


>  <PLP.Chemscore.Metal>  (350) 


>  <PLP.Fitness>  (350) 


>  <PLP.PLP>  (350) 


>  <PLP.ligand.clash>  (350) 


>  <PLP.ligand.torsion>  (350) 


>  <PLP.part.buried>  (350) 


>  <PLP.part.hbond>  (350) 


>  <PLP.part.metal>  (350) 


>  <PLP.part.nonpolar>  (350) 


>  <PLP.part.repulsive>  (350) 


>  <RMSD>  (350) 
0.439733510035

>  <Torsion>  (350) 
177.672185574

>  <TorsionO>  (350) 
4.31728583372

>  <TorsionR>  (350) 
173.35489974

>  <Version>  (350) 


>  <product>  (350) 
5|Compound_3|Compounds_3D_F|sdf|2|dock3|1

>  <rmsd>  (350) 
-1

$$$$
63|Compound_25|Compounds_3D_F|sdf|11|dock1|1
     RDKit          3D

 10  9  0  0  0  0  0  0  0  0999 V2000
   -5.8235  -14.6826   10.7286 O   0  0  0  0  0  0  0  0  0  0  0  0
   -6.9986  -14.9882   10.1581 C   0  0  0  0  0  0  0  0  0  0  0  0
   -7.0297  -15.4151    9.0275 O   0  0  0  0  0  0  0  0  0  0  0  0
   -8.2814  -14.7986   10.9263 C   0  0  0  0  0  0  0  0  0  0  0  0
   -9.3948  -14.9701   10.0463 O   0  0  0  0  0  0  0  0  0  0  0  0
   -8.3576  -15.8315   12.0527 C   0  0  0  0  0  0  0  0  0  0  0  0
   -8.7527  -17.1293   11.4993 N   0  0  0  0  0  0  0  0  0  0  0  0
   -9.9782  -17.6278   11.7566 C   0  0  0  0  0  0  0  0  0  0  0  0
  -10.7534  -17.0014   12.4471 O   0  0  0  0  0  0  0  0  0  0  0  0
  -10.4011  -19.0177   11.1635 B   0  0  0  0  0  0  0  0  0  0  0  0
  1  2  1  0
  2  3  2  0
  2  4  1  0
  4  5  1  0
  4  6  1  0
  6  7  1  0
  7  8  1  0
  8  9  2  0
  8 10  1  0
M  END
>  <Gold.Gold.Protein.RotatedWaterAtoms>  (351) 


>  <Gold.Id.Protein>  (351) 


>  <Gold.PLP.Chemscore.CHOScore>  (351) 
0.0000

>  <Gold.PLP.Chemscore.Hbond>  (351) 
3.9204

>  <Gold.PLP.Chemscore.Internal.Correction>  (351) 
0.0025

>  <Gold.PLP.Chemscore.Metal>  (351) 
0.0000

>  <Gold.PLP.Fitness>  (351) 
30.5638

>  <Gold.PLP.PLP>  (351) 
-19.5694

>  <Gold.PLP.ligand.clash>  (351) 
0.0000

>  <Gold.PLP.ligand.torsion>  (351) 
0.3846

>  <Gold.PLP.part.buried>  (351) 
-4.0874

>  <Gold.PLP.part.hbond>  (351) 
-6.0000

>  <Gold.PLP.part.metal>  (351) 
0.0000

>  <Gold.PLP.part.nonpolar>  (351) 
-11.2882

>  <Gold.PLP.part.repulsive>  (351) 
0.2742

>  <Gold.Protein.RotatedAtoms>  (351) 


>  <Gold.Protein.RotatedTorsions>  (351) 


>  <Gold.Protein.RotatedWaterAtoms>  (351) 


>  <Gold.Version>  (351) 
5.3.0

>  <PLP.Chemscore.CHOScore>  (351) 


>  <PLP.Chemscore.Hbond>  (351) 


>  <PLP.Chemscore.Internal.Correction>  (351) 


>  <PLP.Chemscore.Metal>  (351) 


>  <PLP.Fitness>  (351) 


>  <PLP.PLP>  (351) 


>  <PLP.ligand.clash>  (351) 


>  <PLP.ligand.torsion>  (351) 


>  <PLP.part.buried>  (351) 


>  <PLP.part.hbond>  (351) 


>  <PLP.part.metal>  (351) 


>  <PLP.part.nonpolar>  (351) 


>  <PLP.part.repulsive>  (351) 


>  <Version>  (351) 


$$$$
94|664022_40|Aromatic_carboxylic_acids_F|sdf|24|dock1|1
     RDKit          3D

 12 12  0  0  0  0  0  0  0  0999 V2000
   -8.2596  -17.1212   11.4595 C   0  0  0  0  0  0  0  0  0  0  0  0
   -7.6366  -15.8367   11.6688 N   0  0  0  0  0  0  0  0  0  0  0  0
   -8.3409  -14.6553   11.5719 C   0  0  0  0  0  0  0  0  0  0  0  0
   -9.5296  -14.5547   11.2978 O   0  0  0  0  0  0  0  0  0  0  0  0
   -7.5420  -13.4431   11.8503 C   0  0  0  0  0  0  0  0  0  0  0  0
   -8.1627  -12.1983   11.6738 C   0  0  0  0  0  0  0  0  0  0  0  0
   -7.4390  -11.0301   11.9055 C   0  0  0  0  0  0  0  0  0  0  0  0
   -6.1069  -11.0910   12.3103 C   0  0  0  0  0  0  0  0  0  0  0  0
   -5.4897  -12.3324   12.4853 C   0  0  0  0  0  0  0  0  0  0  0  0
   -6.2035  -13.5136   12.2549 C   0  0  0  0  0  0  0  0  0  0  0  0
   -5.3062  -15.1564   12.5638 Br  0  0  0  0  0  0  0  0  0  0  0  0
   -8.1960   -9.5005   11.6887 Cl  0  0  0  0  0  0  0  0  0  0  0  0
  1  2  1  0
  2  3  1  0
  3  4  2  0
  3  5  1  0
  5  6  2  0
  5 10  1  0
  6  7  1  0
  7  8  2  0
  7 12  1  0
  8  9  1  0
  9 10  2  0
 10 11  1  0
M  END
>  <Gold.Gold.Protein.RotatedWaterAtoms>  (352) 


>  <Gold.Id.Protein>  (352) 


>  <Gold.PLP.Chemscore.CHOScore>  (352) 
0.0000

>  <Gold.PLP.Chemscore.Hbond>  (352) 
0.4160

>  <Gold.PLP.Chemscore.Internal.Correction>  (352) 
0.0004

>  <Gold.PLP.Chemscore.Metal>  (352) 
0.0000

>  <Gold.PLP.Fitness>  (352) 
48.9046

>  <Gold.PLP.PLP>  (352) 
-47.6744

>  <Gold.PLP.ligand.clash>  (352) 
0.0000

>  <Gold.PLP.ligand.torsion>  (352) 
0.0091

>  <Gold.PLP.part.buried>  (352) 
-7.3578

>  <Gold.PLP.part.hbond>  (352) 
-0.5127

>  <Gold.PLP.part.metal>  (352) 
0.0000

>  <Gold.PLP.part.nonpolar>  (352) 
-40.3098

>  <Gold.PLP.part.repulsive>  (352) 
0.1684

>  <Gold.Protein.RotatedAtoms>  (352) 


>  <Gold.Protein.RotatedTorsions>  (352) 


>  <Gold.Protein.RotatedWaterAtoms>  (352) 


>  <Gold.Version>  (352) 
5.3.0

>  <PLP.Chemscore.CHOScore>  (352) 


>  <PLP.Chemscore.Hbond>  (352) 


>  <PLP.Chemscore.Internal.Correction>  (352) 


>  <PLP.Chemscore.Metal>  (352) 


>  <PLP.Fitness>  (352) 


>  <PLP.PLP>  (352) 


>  <PLP.ligand.clash>  (352) 


>  <PLP.ligand.torsion>  (352) 


>  <PLP.part.buried>  (352) 


>  <PLP.part.hbond>  (352) 


>  <PLP.part.metal>  (352) 


>  <PLP.part.nonpolar>  (352) 


>  <PLP.part.repulsive>  (352) 


>  <RMSD>  (352) 
0.30972197429

>  <Torsion>  (352) 
172.929186758

>  <TorsionO>  (352) 
24.4968065243

>  <TorsionR>  (352) 
162.574006718

>  <Version>  (352) 


>  <product>  (352) 
63|Compound_25|Compounds_3D_F|sdf|11|dock1|1

>  <rmsd>  (352) 
-1

$$$$
110|565385_49|Aromatic_carboxylic_acids_F|sdf|29|dock1|1
     RDKit          3D

 13 13  0  0  0  0  0  0  0  0999 V2000
  -10.1118  -17.9021   11.6320 C   0  0  0  0  0  0  0  0  0  0  0  0
   -9.7537  -16.5043   11.6546 N   0  0  0  0  0  0  0  0  0  0  0  0
   -8.4330  -16.1187   11.7930 C   0  0  0  0  0  0  0  0  0  0  0  0
   -7.5159  -16.9298   11.9008 O   0  0  0  0  0  0  0  0  0  0  0  0
   -8.1234  -14.6552   11.8105 C   0  0  0  0  0  0  0  0  0  0  0  0
   -9.0636  -13.6551   11.5375 C   0  0  0  0  0  0  0  0  0  0  0  0
   -8.6966  -12.3009   11.5726 C   0  0  0  0  0  0  0  0  0  0  0  0
   -7.3879  -11.9195   11.8809 C   0  0  0  0  0  0  0  0  0  0  0  0
   -6.4486  -12.9235   12.1551 C   0  0  0  0  0  0  0  0  0  0  0  0
   -6.8098  -14.2750   12.1207 C   0  0  0  0  0  0  0  0  0  0  0  0
   -4.6444  -12.5025   12.5849 Br  0  0  0  0  0  0  0  0  0  0  0  0
   -6.9476  -10.6242   11.9372 O   0  0  0  0  0  0  0  0  0  0  0  0
   -7.9020   -9.5910   11.7256 C   0  0  0  0  0  0  0  0  0  0  0  0
  1  2  1  0
  2  3  1  0
  3  4  2  0
  3  5  1  0
  5  6  2  0
  5 10  1  0
  6  7  1  0
  7  8  2  0
  8  9  1  0
  8 12  1  0
  9 10  2  0
  9 11  1  0
 12 13  1  0
M  END
>  <Gold.Gold.Protein.RotatedWaterAtoms>  (353) 


>  <Gold.Id.Protein>  (353) 


>  <Gold.PLP.Chemscore.CHOScore>  (353) 
0.0000

>  <Gold.PLP.Chemscore.Hbond>  (353) 
1.0000

>  <Gold.PLP.Chemscore.Internal.Correction>  (353) 
0.0000

>  <Gold.PLP.Chemscore.Metal>  (353) 
0.0000

>  <Gold.PLP.Fitness>  (353) 
43.9775

>  <Gold.PLP.PLP>  (353) 
-41.0517

>  <Gold.PLP.ligand.clash>  (353) 
0.0000

>  <Gold.PLP.ligand.torsion>  (353) 
0.0371

>  <Gold.PLP.part.buried>  (353) 
-3.7367

>  <Gold.PLP.part.hbond>  (353) 
-1.0000

>  <Gold.PLP.part.metal>  (353) 
0.0000

>  <Gold.PLP.part.nonpolar>  (353) 
-36.7483

>  <Gold.PLP.part.repulsive>  (353) 
0.4054

>  <Gold.Protein.RotatedAtoms>  (353) 


>  <Gold.Protein.RotatedTorsions>  (353) 


>  <Gold.Protein.RotatedWaterAtoms>  (353) 


>  <Gold.Version>  (353) 
5.3.0

>  <PLP.Chemscore.CHOScore>  (353) 


>  <PLP.Chemscore.Hbond>  (353) 


>  <PLP.Chemscore.Internal.Correction>  (353) 


>  <PLP.Chemscore.Metal>  (353) 


>  <PLP.Fitness>  (353) 


>  <PLP.PLP>  (353) 


>  <PLP.ligand.clash>  (353) 


>  <PLP.ligand.torsion>  (353) 


>  <PLP.part.buried>  (353) 


>  <PLP.part.hbond>  (353) 


>  <PLP.part.metal>  (353) 


>  <PLP.part.nonpolar>  (353) 


>  <PLP.part.repulsive>  (353) 


>  <RMSD>  (353) 
0.319376411377

>  <Torsion>  (353) 
169.460450784

>  <TorsionO>  (353) 
9.7963905484

>  <TorsionR>  (353) 
179.256841332

>  <Version>  (353) 


>  <product>  (353) 
63|Compound_25|Compounds_3D_F|sdf|11|dock1|1

>  <rmsd>  (353) 
-1

$$$$
128|137677_56|Aromatic_carboxylic_acids_F|sdf|33|dock1|1
     RDKit          3D

 11 11  0  0  0  0  0  0  0  0999 V2000
   -8.6116  -16.1544   11.8887 C   0  0  0  0  0  0  0  0  0  0  0  0
   -7.9978  -14.8484   11.9215 N   0  0  0  0  0  0  0  0  0  0  0  0
   -8.7778  -13.7008   11.8756 C   0  0  0  0  0  0  0  0  0  0  0  0
  -10.0002  -13.7896   11.8139 O   0  0  0  0  0  0  0  0  0  0  0  0
   -8.0808  -12.3609   11.9017 C   0  0  0  0  0  0  0  0  0  0  0  0
   -8.7916  -11.1851   11.5813 C   0  0  0  0  0  0  0  0  0  0  0  0
   -8.1781   -9.9267   11.5989 C   0  0  0  0  0  0  0  0  0  0  0  0
   -6.8391   -9.8089   11.9369 C   0  0  0  0  0  0  0  0  0  0  0  0
   -6.1124  -10.9502   12.2575 C   0  0  0  0  0  0  0  0  0  0  0  0
   -6.7171  -12.2196   12.2428 C   0  0  0  0  0  0  0  0  0  0  0  0
   -5.5419  -13.6455   12.7121 Br  0  0  0  0  0  0  0  0  0  0  0  0
  1  2  1  0
  2  3  1  0
  3  4  2  0
  3  5  1  0
  5  6  2  0
  5 10  1  0
  6  7  1  0
  7  8  2  0
  8  9  1  0
  9 10  2  0
 10 11  1  0
M  END
>  <Gold.Gold.Protein.RotatedWaterAtoms>  (354) 


>  <Gold.Id.Protein>  (354) 


>  <Gold.PLP.Chemscore.CHOScore>  (354) 
0.0000

>  <Gold.PLP.Chemscore.Hbond>  (354) 
1.0000

>  <Gold.PLP.Chemscore.Internal.Correction>  (354) 
0.0000

>  <Gold.PLP.Chemscore.Metal>  (354) 
0.0000

>  <Gold.PLP.Fitness>  (354) 
45.2899

>  <Gold.PLP.PLP>  (354) 
-42.4444

>  <Gold.PLP.ligand.clash>  (354) 
0.0000

>  <Gold.PLP.ligand.torsion>  (354) 
0.0772

>  <Gold.PLP.part.buried>  (354) 
-6.4690

>  <Gold.PLP.part.hbond>  (354) 
-0.6863

>  <Gold.PLP.part.metal>  (354) 
0.0000

>  <Gold.PLP.part.nonpolar>  (354) 
-34.8280

>  <Gold.PLP.part.repulsive>  (354) 
0.1963

>  <Gold.Protein.RotatedAtoms>  (354) 


>  <Gold.Protein.RotatedTorsions>  (354) 


>  <Gold.Protein.RotatedWaterAtoms>  (354) 


>  <Gold.Version>  (354) 
5.3.0

>  <PLP.Chemscore.CHOScore>  (354) 


>  <PLP.Chemscore.Hbond>  (354) 


>  <PLP.Chemscore.Internal.Correction>  (354) 


>  <PLP.Chemscore.Metal>  (354) 


>  <PLP.Fitness>  (354) 


>  <PLP.PLP>  (354) 


>  <PLP.ligand.clash>  (354) 


>  <PLP.ligand.torsion>  (354) 


>  <PLP.part.buried>  (354) 


>  <PLP.part.hbond>  (354) 


>  <PLP.part.metal>  (354) 


>  <PLP.part.nonpolar>  (354) 


>  <PLP.part.repulsive>  (354) 


>  <RMSD>  (354) 
0.428070490903

>  <Torsion>  (354) 
152.444048788

>  <TorsionO>  (354) 
39.0580871276

>  <TorsionR>  (354) 
168.497864085

>  <Version>  (354) 


>  <product>  (354) 
63|Compound_25|Compounds_3D_F|sdf|11|dock1|1

>  <rmsd>  (354) 
-1

$$$$
974|750794_1404|Aromatic_primary_amines_F|sdf|194|dock3|1
     RDKit          3D

 14 14  0  0  0  0  0  0  0  0999 V2000
  -13.6355  -18.1936    9.4145 C   0  0  0  0  0  0  0  0  0  0  0  0
  -13.2544  -19.4497   10.1732 C   0  0  0  0  0  0  0  0  0  0  0  0
  -11.8731  -19.3506   10.5383 O   0  0  0  0  0  0  0  0  0  0  0  0
  -11.6148  -18.5085   11.5823 C   0  0  0  0  0  0  0  0  0  0  0  0
  -12.3947  -18.2810   12.5004 O   0  0  0  0  0  0  0  0  0  0  0  0
  -10.3031  -17.8985   11.4902 C   0  0  0  0  0  0  0  0  0  0  0  0
   -9.1673  -18.4974   10.9931 C   0  0  0  0  0  0  0  0  0  0  0  0
   -8.1448  -17.6055   11.0758 O   0  0  0  0  0  0  0  0  0  0  0  0
   -8.7110  -16.4917   11.6237 C   0  0  0  0  0  0  0  0  0  0  0  0
   -9.9933  -16.6110   11.8915 N   0  0  0  0  0  0  0  0  0  0  0  0
   -7.9611  -15.3718   11.8549 N   0  0  0  0  0  0  0  0  0  0  0  0
   -8.5046  -14.1249   12.0676 C   0  0  0  0  0  0  0  0  0  0  0  0
   -9.6950  -13.8313   12.1035 O   0  0  0  0  0  0  0  0  0  0  0  0
   -7.4448  -13.0785   12.3021 C   0  0  0  0  0  0  0  0  0  0  0  0
  1  2  1  0
  2  3  1  0
  3  4  1  0
  4  5  2  0
  4  6  1  0
  6  7  2  0
  6 10  1  0
  7  8  1  0
  8  9  1  0
  9 10  2  0
  9 11  1  0
 11 12  1  0
 12 13  2  0
 12 14  1  0
M  END
>  <Gold.Gold.Protein.RotatedWaterAtoms>  (355) 


>  <Gold.Id.Protein>  (355) 


>  <Gold.PLP.Chemscore.CHOScore>  (355) 
0.0000

>  <Gold.PLP.Chemscore.Hbond>  (355) 
2.0000

>  <Gold.PLP.Chemscore.Internal.Correction>  (355) 
0.0053

>  <Gold.PLP.Chemscore.Metal>  (355) 
0.0000

>  <Gold.PLP.Fitness>  (355) 
36.8047

>  <Gold.PLP.PLP>  (355) 
-32.7996

>  <Gold.PLP.ligand.clash>  (355) 
0.0000

>  <Gold.PLP.ligand.torsion>  (355) 
1.0001

>  <Gold.PLP.part.buried>  (355) 
-6.5206

>  <Gold.PLP.part.hbond>  (355) 
-2.9156

>  <Gold.PLP.part.metal>  (355) 
0.0000

>  <Gold.PLP.part.nonpolar>  (355) 
-23.4080

>  <Gold.PLP.part.repulsive>  (355) 
0.3100

>  <Gold.Protein.RotatedAtoms>  (355) 


>  <Gold.Protein.RotatedTorsions>  (355) 


>  <Gold.Protein.RotatedWaterAtoms>  (355) 


>  <Gold.Version>  (355) 
5.3.0

>  <PLP.Chemscore.CHOScore>  (355) 


>  <PLP.Chemscore.Hbond>  (355) 


>  <PLP.Chemscore.Internal.Correction>  (355) 


>  <PLP.Chemscore.Metal>  (355) 


>  <PLP.Fitness>  (355) 


>  <PLP.PLP>  (355) 


>  <PLP.ligand.clash>  (355) 


>  <PLP.ligand.torsion>  (355) 


>  <PLP.part.buried>  (355) 


>  <PLP.part.hbond>  (355) 


>  <PLP.part.metal>  (355) 


>  <PLP.part.nonpolar>  (355) 


>  <PLP.part.repulsive>  (355) 


>  <RMSD>  (355) 
0.499949349045

>  <Torsion>  (355) 
159.973716791

>  <TorsionO>  (355) 
19.1052109979

>  <TorsionR>  (355) 
179.078927789

>  <Version>  (355) 


>  <product>  (355) 
63|Compound_25|Compounds_3D_F|sdf|11|dock1|1

>  <rmsd>  (355) 
-1

$$$$
1884|M3006_1781|Aromatic_primary_amines_F|sdf|361|dock3|1
     RDKit          3D

 31 34  0  0  0  0  0  0  0  0999 V2000
  -14.4210  -19.8971    8.7934 C   0  0  0  0  0  0  0  0  0  0  0  0
  -13.9762  -19.4927   10.1894 C   0  0  0  0  0  0  0  0  0  0  0  0
  -14.1356  -20.6409   11.1817 C   0  0  0  0  0  0  0  0  0  0  0  0
  -13.5197  -20.3070   12.5189 C   0  0  0  0  0  0  0  0  0  0  0  0
  -12.9307  -19.2724   12.7954 O   0  0  0  0  0  0  0  0  0  0  0  0
  -13.7110  -21.3451   13.3845 O   0  0  0  0  0  0  0  0  0  0  0  0
  -12.9425  -21.2698   14.5900 C   0  0  0  0  0  0  0  0  0  0  0  0
  -12.8849  -22.6189   15.2889 C   0  0  0  0  0  0  0  0  0  0  0  0
  -11.6552  -22.4172   16.1494 C   0  0  0  0  0  0  0  0  0  0  0  0
  -11.2420  -23.7410   16.7624 C   0  0  0  0  0  0  0  0  0  0  0  0
  -12.3024  -24.2223   17.5862 O   0  0  0  0  0  0  0  0  0  0  0  0
  -13.7888  -24.3384   16.9603 P   0  0  0  0  0  0  0  0  0  0  0  0
  -14.8775  -24.6795   17.9243 O   0  0  0  0  0  0  0  0  0  0  0  0
  -13.9839  -22.9641   16.1174 O   0  0  0  0  0  0  0  0  0  0  0  0
  -13.5991  -25.4435   15.8075 O   0  0  0  0  0  0  0  0  0  0  0  0
  -10.6922  -21.8161   15.2889 O   0  0  0  0  0  0  0  0  0  0  0  0
  -11.4338  -20.9664   14.3653 C   0  0  0  0  0  0  0  0  0  0  0  0
  -10.9052  -21.2017   13.0342 N   0  0  0  0  0  0  0  0  0  0  0  0
  -10.7814  -22.4114   12.4013 C   0  0  0  0  0  0  0  0  0  0  0  0
  -10.2640  -22.2918   11.1953 N   0  0  0  0  0  0  0  0  0  0  0  0
  -10.0274  -20.9476   11.0424 C   0  0  0  0  0  0  0  0  0  0  0  0
  -10.4203  -20.2487   12.1733 C   0  0  0  0  0  0  0  0  0  0  0  0
  -10.3338  -18.9216   12.3641 N   0  0  0  0  0  0  0  0  0  0  0  0
   -9.8057  -18.2730   11.3024 C   0  0  0  0  0  0  0  0  0  0  0  0
   -9.3808  -18.8370   10.1545 N   0  0  0  0  0  0  0  0  0  0  0  0
   -9.4895  -20.1691   10.0244 C   0  0  0  0  0  0  0  0  0  0  0  0
   -9.0330  -20.6622    8.8349 O   0  0  0  0  0  0  0  0  0  0  0  0
   -9.7222  -16.8901   11.4793 N   0  0  0  0  0  0  0  0  0  0  0  0
   -8.5796  -16.1798   11.7761 C   0  0  0  0  0  0  0  0  0  0  0  0
   -7.4445  -16.6221   11.9131 O   0  0  0  0  0  0  0  0  0  0  0  0
   -8.8524  -14.7024   11.8973 C   0  0  0  0  0  0  0  0  0  0  0  0
  1  2  1  0
  2  3  1  0
  3  4  1  0
  4  5  2  0
  4  6  1  0
  6  7  1  0
  7  8  1  0
  7 17  1  0
  8  9  1  0
  8 14  1  0
  9 10  1  0
  9 16  1  0
 10 11  1  0
 11 12  1  0
 12 13  2  0
 12 14  1  0
 12 15  1  0
 16 17  1  0
 17 18  1  0
 18 19  1  0
 18 22  1  0
 19 20  2  0
 20 21  1  0
 21 22  2  0
 21 26  1  0
 22 23  1  0
 23 24  2  0
 24 25  1  0
 24 28  1  0
 25 26  2  0
 26 27  1  0
 28 29  1  0
 29 30  2  0
 29 31  1  0
M  END
>  <Gold.Gold.Protein.RotatedWaterAtoms>  (356) 


>  <Gold.Id.Protein>  (356) 


>  <Gold.PLP.Chemscore.CHOScore>  (356) 
0.0000

>  <Gold.PLP.Chemscore.Hbond>  (356) 
1.2080

>  <Gold.PLP.Chemscore.Internal.Correction>  (356) 
0.1232

>  <Gold.PLP.Chemscore.Metal>  (356) 
0.0000

>  <Gold.PLP.Fitness>  (356) 
47.7145

>  <Gold.PLP.PLP>  (356) 
-46.0218

>  <Gold.PLP.ligand.clash>  (356) 
0.0000

>  <Gold.PLP.ligand.torsion>  (356) 
1.0272

>  <Gold.PLP.part.buried>  (356) 
-2.2958

>  <Gold.PLP.part.hbond>  (356) 
-4.0214

>  <Gold.PLP.part.metal>  (356) 
0.0000

>  <Gold.PLP.part.nonpolar>  (356) 
-41.4699

>  <Gold.PLP.part.repulsive>  (356) 
0.9524

>  <Gold.Protein.RotatedAtoms>  (356) 


>  <Gold.Protein.RotatedTorsions>  (356) 


>  <Gold.Protein.RotatedWaterAtoms>  (356) 


>  <Gold.Version>  (356) 
5.3.0

>  <PLP.Chemscore.CHOScore>  (356) 


>  <PLP.Chemscore.Hbond>  (356) 


>  <PLP.Chemscore.Internal.Correction>  (356) 


>  <PLP.Chemscore.Metal>  (356) 


>  <PLP.Fitness>  (356) 


>  <PLP.PLP>  (356) 


>  <PLP.ligand.clash>  (356) 


>  <PLP.ligand.torsion>  (356) 


>  <PLP.part.buried>  (356) 


>  <PLP.part.hbond>  (356) 


>  <PLP.part.metal>  (356) 


>  <PLP.part.nonpolar>  (356) 


>  <PLP.part.repulsive>  (356) 


>  <RMSD>  (356) 
0.291955871297

>  <Torsion>  (356) 
171.923704933

>  <TorsionO>  (356) 
6.03609353985

>  <TorsionR>  (356) 
177.959798473

>  <Version>  (356) 


>  <product>  (356) 
63|Compound_25|Compounds_3D_F|sdf|11|dock1|1

>  <rmsd>  (356) 
-1

$$$$
193|32168_281|Aromatic_primary_amines_F|sdf|39|dock6|1
     RDKit          3D

 23 25  0  0  0  0  0  0  0  0999 V2000
   -7.8439  -12.1461   11.8919 C   0  0  0  0  0  0  0  0  0  0  0  0
   -8.5691  -13.4472   11.6781 C   0  0  0  0  0  0  0  0  0  0  0  0
   -9.7886  -13.4981   11.5208 O   0  0  0  0  0  0  0  0  0  0  0  0
   -7.7264  -14.5390   11.7020 N   0  0  0  0  0  0  0  0  0  0  0  0
   -8.1889  -15.8197   11.5323 C   0  0  0  0  0  0  0  0  0  0  0  0
   -9.4747  -16.2039   11.8163 N   0  0  0  0  0  0  0  0  0  0  0  0
   -9.5964  -17.5375   11.5379 C   0  0  0  0  0  0  0  0  0  0  0  0
  -10.6643  -18.4283   11.6415 C   0  0  0  0  0  0  0  0  0  0  0  0
  -10.4051  -19.7586   11.2778 C   0  0  0  0  0  0  0  0  0  0  0  0
   -9.1530  -20.1507   10.7795 C   0  0  0  0  0  0  0  0  0  0  0  0
   -8.1017  -19.2294   10.6839 C   0  0  0  0  0  0  0  0  0  0  0  0
   -8.3349  -17.9032   11.0783 C   0  0  0  0  0  0  0  0  0  0  0  0
   -7.4773  -16.8281   11.0838 N   0  0  0  0  0  0  0  0  0  0  0  0
   -8.8530  -21.7658   10.2429 Cl  0  0  0  0  0  0  0  0  0  0  0  0
  -11.4669  -20.6323   11.3734 O   0  0  0  0  0  0  0  0  0  0  0  0
  -12.5262  -20.4408   10.5053 C   0  0  0  0  0  0  0  0  0  0  0  0
  -13.3188  -19.2846   10.5304 C   0  0  0  0  0  0  0  0  0  0  0  0
  -14.3665  -19.1344    9.6224 C   0  0  0  0  0  0  0  0  0  0  0  0
  -14.6219  -20.1279    8.6796 C   0  0  0  0  0  0  0  0  0  0  0  0
  -13.8238  -21.2756    8.6345 C   0  0  0  0  0  0  0  0  0  0  0  0
  -12.7674  -21.4342    9.5416 C   0  0  0  0  0  0  0  0  0  0  0  0
  -11.7588  -22.8458    9.4996 Cl  0  0  0  0  0  0  0  0  0  0  0  0
  -14.1988  -22.4584    7.4296 Cl  0  0  0  0  0  0  0  0  0  0  0  0
  1  2  1  0
  2  3  2  0
  2  4  1  0
  4  5  1  0
  5  6  1  0
  5 13  2  0
  6  7  1  0
  7  8  2  0
  7 12  1  0
  8  9  1  0
  9 10  2  0
  9 15  1  0
 10 11  1  0
 10 14  1  0
 11 12  2  0
 12 13  1  0
 15 16  1  0
 16 17  2  0
 16 21  1  0
 17 18  1  0
 18 19  2  0
 19 20  1  0
 20 21  2  0
 20 23  1  0
 21 22  1  0
M  END
>  <Gold.Gold.Protein.RotatedWaterAtoms>  (357) 


>  <Gold.Id.Protein>  (357) 


>  <Gold.PLP.Chemscore.CHOScore>  (357) 
0.0000

>  <Gold.PLP.Chemscore.Hbond>  (357) 
1.0000

>  <Gold.PLP.Chemscore.Internal.Correction>  (357) 
0.0086

>  <Gold.PLP.Chemscore.Metal>  (357) 
0.0000

>  <Gold.PLP.Fitness>  (357) 
50.7139

>  <Gold.PLP.PLP>  (357) 
-48.1706

>  <Gold.PLP.ligand.clash>  (357) 
0.0000

>  <Gold.PLP.ligand.torsion>  (357) 
0.2327

>  <Gold.PLP.part.buried>  (357) 
-6.5205

>  <Gold.PLP.part.hbond>  (357) 
-2.0000

>  <Gold.PLP.part.metal>  (357) 
0.0000

>  <Gold.PLP.part.nonpolar>  (357) 
-39.3857

>  <Gold.PLP.part.repulsive>  (357) 
0.3298

>  <Gold.Protein.RotatedAtoms>  (357) 


>  <Gold.Protein.RotatedTorsions>  (357) 


>  <Gold.Protein.RotatedWaterAtoms>  (357) 


>  <Gold.Version>  (357) 
5.3.0

>  <PLP.Chemscore.CHOScore>  (357) 


>  <PLP.Chemscore.Hbond>  (357) 


>  <PLP.Chemscore.Internal.Correction>  (357) 


>  <PLP.Chemscore.Metal>  (357) 


>  <PLP.Fitness>  (357) 


>  <PLP.PLP>  (357) 


>  <PLP.ligand.clash>  (357) 


>  <PLP.ligand.torsion>  (357) 


>  <PLP.part.buried>  (357) 


>  <PLP.part.hbond>  (357) 


>  <PLP.part.metal>  (357) 


>  <PLP.part.nonpolar>  (357) 


>  <PLP.part.repulsive>  (357) 


>  <RMSD>  (357) 
0.439733510035

>  <Torsion>  (357) 
177.672185574

>  <TorsionO>  (357) 
4.31728583372

>  <TorsionR>  (357) 
173.35489974

>  <Version>  (357) 


>  <product>  (357) 
63|Compound_25|Compounds_3D_F|sdf|11|dock1|1

>  <rmsd>  (357) 
-1

$$$$
21|Compound_12|Compounds_3D_F|sdf|5|dock2|1
     RDKit          3D

  6  5  0  0  0  0  0  0  0  0999 V2000
   -5.5009  -12.0856   12.4984 B   0  0  0  0  0  0  0  0  0  0  0  0
   -5.8053  -13.6232   12.4142 C   0  0  0  0  0  0  0  0  0  0  0  0
   -6.9463  -14.0221   12.5098 O   0  0  0  0  0  0  0  0  0  0  0  0
   -4.7975  -14.5006   12.2356 N   0  0  0  0  0  0  0  0  0  0  0  0
   -5.0817  -15.9359   12.1572 C   0  0  0  0  0  0  0  0  0  0  0  0
   -3.7654  -16.7147   12.1134 C   0  0  0  0  0  0  0  0  0  0  0  0
  1  2  1  0
  2  3  2  0
  2  4  1  0
  4  5  1  0
  5  6  1  0
M  END
>  <Gold.Gold.Protein.RotatedWaterAtoms>  (358) 


>  <Gold.Id.Protein>  (358) 


>  <Gold.PLP.Chemscore.CHOScore>  (358) 
0.0000

>  <Gold.PLP.Chemscore.Hbond>  (358) 
1.0000

>  <Gold.PLP.Chemscore.Internal.Correction>  (358) 
0.0000

>  <Gold.PLP.Chemscore.Metal>  (358) 
0.0000

>  <Gold.PLP.Fitness>  (358) 
24.3007

>  <Gold.PLP.PLP>  (358) 
-21.3398

>  <Gold.PLP.ligand.clash>  (358) 
0.0000

>  <Gold.PLP.ligand.torsion>  (358) 
0.0195

>  <Gold.PLP.part.buried>  (358) 
-4.3542

>  <Gold.PLP.part.hbond>  (358) 
-2.0000

>  <Gold.PLP.part.metal>  (358) 
0.0000

>  <Gold.PLP.part.nonpolar>  (358) 
-14.9649

>  <Gold.PLP.part.repulsive>  (358) 
0.2440

>  <Gold.Protein.RotatedAtoms>  (358) 


>  <Gold.Protein.RotatedTorsions>  (358) 


>  <Gold.Protein.RotatedWaterAtoms>  (358) 


>  <Gold.Version>  (358) 
5.3.0

>  <PLP.Chemscore.CHOScore>  (358) 


>  <PLP.Chemscore.Hbond>  (358) 


>  <PLP.Chemscore.Internal.Correction>  (358) 


>  <PLP.Chemscore.Metal>  (358) 


>  <PLP.Fitness>  (358) 


>  <PLP.PLP>  (358) 


>  <PLP.ligand.clash>  (358) 


>  <PLP.ligand.torsion>  (358) 


>  <PLP.part.buried>  (358) 


>  <PLP.part.hbond>  (358) 


>  <PLP.part.metal>  (358) 


>  <PLP.part.nonpolar>  (358) 


>  <PLP.part.repulsive>  (358) 


>  <Version>  (358) 


$$$$
94|664022_40|Aromatic_carboxylic_acids_F|sdf|24|dock1|1
     RDKit          3D

 12 12  0  0  0  0  0  0  0  0999 V2000
   -8.2596  -17.1212   11.4595 C   0  0  0  0  0  0  0  0  0  0  0  0
   -7.6366  -15.8367   11.6688 N   0  0  0  0  0  0  0  0  0  0  0  0
   -8.3409  -14.6553   11.5719 C   0  0  0  0  0  0  0  0  0  0  0  0
   -9.5296  -14.5547   11.2978 O   0  0  0  0  0  0  0  0  0  0  0  0
   -7.5420  -13.4431   11.8503 C   0  0  0  0  0  0  0  0  0  0  0  0
   -8.1627  -12.1983   11.6738 C   0  0  0  0  0  0  0  0  0  0  0  0
   -7.4390  -11.0301   11.9055 C   0  0  0  0  0  0  0  0  0  0  0  0
   -6.1069  -11.0910   12.3103 C   0  0  0  0  0  0  0  0  0  0  0  0
   -5.4897  -12.3324   12.4853 C   0  0  0  0  0  0  0  0  0  0  0  0
   -6.2035  -13.5136   12.2549 C   0  0  0  0  0  0  0  0  0  0  0  0
   -5.3062  -15.1564   12.5638 Br  0  0  0  0  0  0  0  0  0  0  0  0
   -8.1960   -9.5005   11.6887 Cl  0  0  0  0  0  0  0  0  0  0  0  0
  1  2  1  0
  2  3  1  0
  3  4  2  0
  3  5  1  0
  5  6  2  0
  5 10  1  0
  6  7  1  0
  7  8  2  0
  7 12  1  0
  8  9  1  0
  9 10  2  0
 10 11  1  0
M  END
>  <Gold.Gold.Protein.RotatedWaterAtoms>  (359) 


>  <Gold.Id.Protein>  (359) 


>  <Gold.PLP.Chemscore.CHOScore>  (359) 
0.0000

>  <Gold.PLP.Chemscore.Hbond>  (359) 
0.4160

>  <Gold.PLP.Chemscore.Internal.Correction>  (359) 
0.0004

>  <Gold.PLP.Chemscore.Metal>  (359) 
0.0000

>  <Gold.PLP.Fitness>  (359) 
48.9046

>  <Gold.PLP.PLP>  (359) 
-47.6744

>  <Gold.PLP.ligand.clash>  (359) 
0.0000

>  <Gold.PLP.ligand.torsion>  (359) 
0.0091

>  <Gold.PLP.part.buried>  (359) 
-7.3578

>  <Gold.PLP.part.hbond>  (359) 
-0.5127

>  <Gold.PLP.part.metal>  (359) 
0.0000

>  <Gold.PLP.part.nonpolar>  (359) 
-40.3098

>  <Gold.PLP.part.repulsive>  (359) 
0.1684

>  <Gold.Protein.RotatedAtoms>  (359) 


>  <Gold.Protein.RotatedTorsions>  (359) 


>  <Gold.Protein.RotatedWaterAtoms>  (359) 


>  <Gold.Version>  (359) 
5.3.0

>  <PLP.Chemscore.CHOScore>  (359) 


>  <PLP.Chemscore.Hbond>  (359) 


>  <PLP.Chemscore.Internal.Correction>  (359) 


>  <PLP.Chemscore.Metal>  (359) 


>  <PLP.Fitness>  (359) 


>  <PLP.PLP>  (359) 


>  <PLP.ligand.clash>  (359) 


>  <PLP.ligand.torsion>  (359) 


>  <PLP.part.buried>  (359) 


>  <PLP.part.hbond>  (359) 


>  <PLP.part.metal>  (359) 


>  <PLP.part.nonpolar>  (359) 


>  <PLP.part.repulsive>  (359) 


>  <RMSD>  (359) 
0.30972197429

>  <Torsion>  (359) 
172.929186758

>  <TorsionO>  (359) 
24.4968065243

>  <TorsionR>  (359) 
162.574006718

>  <Version>  (359) 


>  <product>  (359) 
21|Compound_12|Compounds_3D_F|sdf|5|dock2|1

>  <rmsd>  (359) 
-1

$$$$
110|565385_49|Aromatic_carboxylic_acids_F|sdf|29|dock1|1
     RDKit          3D

 13 13  0  0  0  0  0  0  0  0999 V2000
  -10.1118  -17.9021   11.6320 C   0  0  0  0  0  0  0  0  0  0  0  0
   -9.7537  -16.5043   11.6546 N   0  0  0  0  0  0  0  0  0  0  0  0
   -8.4330  -16.1187   11.7930 C   0  0  0  0  0  0  0  0  0  0  0  0
   -7.5159  -16.9298   11.9008 O   0  0  0  0  0  0  0  0  0  0  0  0
   -8.1234  -14.6552   11.8105 C   0  0  0  0  0  0  0  0  0  0  0  0
   -9.0636  -13.6551   11.5375 C   0  0  0  0  0  0  0  0  0  0  0  0
   -8.6966  -12.3009   11.5726 C   0  0  0  0  0  0  0  0  0  0  0  0
   -7.3879  -11.9195   11.8809 C   0  0  0  0  0  0  0  0  0  0  0  0
   -6.4486  -12.9235   12.1551 C   0  0  0  0  0  0  0  0  0  0  0  0
   -6.8098  -14.2750   12.1207 C   0  0  0  0  0  0  0  0  0  0  0  0
   -4.6444  -12.5025   12.5849 Br  0  0  0  0  0  0  0  0  0  0  0  0
   -6.9476  -10.6242   11.9372 O   0  0  0  0  0  0  0  0  0  0  0  0
   -7.9020   -9.5910   11.7256 C   0  0  0  0  0  0  0  0  0  0  0  0
  1  2  1  0
  2  3  1  0
  3  4  2  0
  3  5  1  0
  5  6  2  0
  5 10  1  0
  6  7  1  0
  7  8  2  0
  8  9  1  0
  8 12  1  0
  9 10  2  0
  9 11  1  0
 12 13  1  0
M  END
>  <Gold.Gold.Protein.RotatedWaterAtoms>  (360) 


>  <Gold.Id.Protein>  (360) 


>  <Gold.PLP.Chemscore.CHOScore>  (360) 
0.0000

>  <Gold.PLP.Chemscore.Hbond>  (360) 
1.0000

>  <Gold.PLP.Chemscore.Internal.Correction>  (360) 
0.0000

>  <Gold.PLP.Chemscore.Metal>  (360) 
0.0000

>  <Gold.PLP.Fitness>  (360) 
43.9775

>  <Gold.PLP.PLP>  (360) 
-41.0517

>  <Gold.PLP.ligand.clash>  (360) 
0.0000

>  <Gold.PLP.ligand.torsion>  (360) 
0.0371

>  <Gold.PLP.part.buried>  (360) 
-3.7367

>  <Gold.PLP.part.hbond>  (360) 
-1.0000

>  <Gold.PLP.part.metal>  (360) 
0.0000

>  <Gold.PLP.part.nonpolar>  (360) 
-36.7483

>  <Gold.PLP.part.repulsive>  (360) 
0.4054

>  <Gold.Protein.RotatedAtoms>  (360) 


>  <Gold.Protein.RotatedTorsions>  (360) 


>  <Gold.Protein.RotatedWaterAtoms>  (360) 


>  <Gold.Version>  (360) 
5.3.0

>  <PLP.Chemscore.CHOScore>  (360) 


>  <PLP.Chemscore.Hbond>  (360) 


>  <PLP.Chemscore.Internal.Correction>  (360) 


>  <PLP.Chemscore.Metal>  (360) 


>  <PLP.Fitness>  (360) 


>  <PLP.PLP>  (360) 


>  <PLP.ligand.clash>  (360) 


>  <PLP.ligand.torsion>  (360) 


>  <PLP.part.buried>  (360) 


>  <PLP.part.hbond>  (360) 


>  <PLP.part.metal>  (360) 


>  <PLP.part.nonpolar>  (360) 


>  <PLP.part.repulsive>  (360) 


>  <RMSD>  (360) 
0.319376411377

>  <Torsion>  (360) 
169.460450784

>  <TorsionO>  (360) 
9.7963905484

>  <TorsionR>  (360) 
179.256841332

>  <Version>  (360) 


>  <product>  (360) 
21|Compound_12|Compounds_3D_F|sdf|5|dock2|1

>  <rmsd>  (360) 
-1

$$$$
128|137677_56|Aromatic_carboxylic_acids_F|sdf|33|dock1|1
     RDKit          3D

 11 11  0  0  0  0  0  0  0  0999 V2000
   -8.6116  -16.1544   11.8887 C   0  0  0  0  0  0  0  0  0  0  0  0
   -7.9978  -14.8484   11.9215 N   0  0  0  0  0  0  0  0  0  0  0  0
   -8.7778  -13.7008   11.8756 C   0  0  0  0  0  0  0  0  0  0  0  0
  -10.0002  -13.7896   11.8139 O   0  0  0  0  0  0  0  0  0  0  0  0
   -8.0808  -12.3609   11.9017 C   0  0  0  0  0  0  0  0  0  0  0  0
   -8.7916  -11.1851   11.5813 C   0  0  0  0  0  0  0  0  0  0  0  0
   -8.1781   -9.9267   11.5989 C   0  0  0  0  0  0  0  0  0  0  0  0
   -6.8391   -9.8089   11.9369 C   0  0  0  0  0  0  0  0  0  0  0  0
   -6.1124  -10.9502   12.2575 C   0  0  0  0  0  0  0  0  0  0  0  0
   -6.7171  -12.2196   12.2428 C   0  0  0  0  0  0  0  0  0  0  0  0
   -5.5419  -13.6455   12.7121 Br  0  0  0  0  0  0  0  0  0  0  0  0
  1  2  1  0
  2  3  1  0
  3  4  2  0
  3  5  1  0
  5  6  2  0
  5 10  1  0
  6  7  1  0
  7  8  2  0
  8  9  1  0
  9 10  2  0
 10 11  1  0
M  END
>  <Gold.Gold.Protein.RotatedWaterAtoms>  (361) 


>  <Gold.Id.Protein>  (361) 


>  <Gold.PLP.Chemscore.CHOScore>  (361) 
0.0000

>  <Gold.PLP.Chemscore.Hbond>  (361) 
1.0000

>  <Gold.PLP.Chemscore.Internal.Correction>  (361) 
0.0000

>  <Gold.PLP.Chemscore.Metal>  (361) 
0.0000

>  <Gold.PLP.Fitness>  (361) 
45.2899

>  <Gold.PLP.PLP>  (361) 
-42.4444

>  <Gold.PLP.ligand.clash>  (361) 
0.0000

>  <Gold.PLP.ligand.torsion>  (361) 
0.0772

>  <Gold.PLP.part.buried>  (361) 
-6.4690

>  <Gold.PLP.part.hbond>  (361) 
-0.6863

>  <Gold.PLP.part.metal>  (361) 
0.0000

>  <Gold.PLP.part.nonpolar>  (361) 
-34.8280

>  <Gold.PLP.part.repulsive>  (361) 
0.1963

>  <Gold.Protein.RotatedAtoms>  (361) 


>  <Gold.Protein.RotatedTorsions>  (361) 


>  <Gold.Protein.RotatedWaterAtoms>  (361) 


>  <Gold.Version>  (361) 
5.3.0

>  <PLP.Chemscore.CHOScore>  (361) 


>  <PLP.Chemscore.Hbond>  (361) 


>  <PLP.Chemscore.Internal.Correction>  (361) 


>  <PLP.Chemscore.Metal>  (361) 


>  <PLP.Fitness>  (361) 


>  <PLP.PLP>  (361) 


>  <PLP.ligand.clash>  (361) 


>  <PLP.ligand.torsion>  (361) 


>  <PLP.part.buried>  (361) 


>  <PLP.part.hbond>  (361) 


>  <PLP.part.metal>  (361) 


>  <PLP.part.nonpolar>  (361) 


>  <PLP.part.repulsive>  (361) 


>  <RMSD>  (361) 
0.428070490903

>  <Torsion>  (361) 
152.444048788

>  <TorsionO>  (361) 
39.0580871276

>  <TorsionR>  (361) 
168.497864085

>  <Version>  (361) 


>  <product>  (361) 
21|Compound_12|Compounds_3D_F|sdf|5|dock2|1

>  <rmsd>  (361) 
-1

$$$$
974|750794_1404|Aromatic_primary_amines_F|sdf|194|dock3|1
     RDKit          3D

 14 14  0  0  0  0  0  0  0  0999 V2000
  -13.6355  -18.1936    9.4145 C   0  0  0  0  0  0  0  0  0  0  0  0
  -13.2544  -19.4497   10.1732 C   0  0  0  0  0  0  0  0  0  0  0  0
  -11.8731  -19.3506   10.5383 O   0  0  0  0  0  0  0  0  0  0  0  0
  -11.6148  -18.5085   11.5823 C   0  0  0  0  0  0  0  0  0  0  0  0
  -12.3947  -18.2810   12.5004 O   0  0  0  0  0  0  0  0  0  0  0  0
  -10.3031  -17.8985   11.4902 C   0  0  0  0  0  0  0  0  0  0  0  0
   -9.1673  -18.4974   10.9931 C   0  0  0  0  0  0  0  0  0  0  0  0
   -8.1448  -17.6055   11.0758 O   0  0  0  0  0  0  0  0  0  0  0  0
   -8.7110  -16.4917   11.6237 C   0  0  0  0  0  0  0  0  0  0  0  0
   -9.9933  -16.6110   11.8915 N   0  0  0  0  0  0  0  0  0  0  0  0
   -7.9611  -15.3718   11.8549 N   0  0  0  0  0  0  0  0  0  0  0  0
   -8.5046  -14.1249   12.0676 C   0  0  0  0  0  0  0  0  0  0  0  0
   -9.6950  -13.8313   12.1035 O   0  0  0  0  0  0  0  0  0  0  0  0
   -7.4448  -13.0785   12.3021 C   0  0  0  0  0  0  0  0  0  0  0  0
  1  2  1  0
  2  3  1  0
  3  4  1  0
  4  5  2  0
  4  6  1  0
  6  7  2  0
  6 10  1  0
  7  8  1  0
  8  9  1  0
  9 10  2  0
  9 11  1  0
 11 12  1  0
 12 13  2  0
 12 14  1  0
M  END
>  <Gold.Gold.Protein.RotatedWaterAtoms>  (362) 


>  <Gold.Id.Protein>  (362) 


>  <Gold.PLP.Chemscore.CHOScore>  (362) 
0.0000

>  <Gold.PLP.Chemscore.Hbond>  (362) 
2.0000

>  <Gold.PLP.Chemscore.Internal.Correction>  (362) 
0.0053

>  <Gold.PLP.Chemscore.Metal>  (362) 
0.0000

>  <Gold.PLP.Fitness>  (362) 
36.8047

>  <Gold.PLP.PLP>  (362) 
-32.7996

>  <Gold.PLP.ligand.clash>  (362) 
0.0000

>  <Gold.PLP.ligand.torsion>  (362) 
1.0001

>  <Gold.PLP.part.buried>  (362) 
-6.5206

>  <Gold.PLP.part.hbond>  (362) 
-2.9156

>  <Gold.PLP.part.metal>  (362) 
0.0000

>  <Gold.PLP.part.nonpolar>  (362) 
-23.4080

>  <Gold.PLP.part.repulsive>  (362) 
0.3100

>  <Gold.Protein.RotatedAtoms>  (362) 


>  <Gold.Protein.RotatedTorsions>  (362) 


>  <Gold.Protein.RotatedWaterAtoms>  (362) 


>  <Gold.Version>  (362) 
5.3.0

>  <PLP.Chemscore.CHOScore>  (362) 


>  <PLP.Chemscore.Hbond>  (362) 


>  <PLP.Chemscore.Internal.Correction>  (362) 


>  <PLP.Chemscore.Metal>  (362) 


>  <PLP.Fitness>  (362) 


>  <PLP.PLP>  (362) 


>  <PLP.ligand.clash>  (362) 


>  <PLP.ligand.torsion>  (362) 


>  <PLP.part.buried>  (362) 


>  <PLP.part.hbond>  (362) 


>  <PLP.part.metal>  (362) 


>  <PLP.part.nonpolar>  (362) 


>  <PLP.part.repulsive>  (362) 


>  <RMSD>  (362) 
0.499949349045

>  <Torsion>  (362) 
159.973716791

>  <TorsionO>  (362) 
19.1052109979

>  <TorsionR>  (362) 
179.078927789

>  <Version>  (362) 


>  <product>  (362) 
21|Compound_12|Compounds_3D_F|sdf|5|dock2|1

>  <rmsd>  (362) 
-1

$$$$
1884|M3006_1781|Aromatic_primary_amines_F|sdf|361|dock3|1
     RDKit          3D

 31 34  0  0  0  0  0  0  0  0999 V2000
  -14.4210  -19.8971    8.7934 C   0  0  0  0  0  0  0  0  0  0  0  0
  -13.9762  -19.4927   10.1894 C   0  0  0  0  0  0  0  0  0  0  0  0
  -14.1356  -20.6409   11.1817 C   0  0  0  0  0  0  0  0  0  0  0  0
  -13.5197  -20.3070   12.5189 C   0  0  0  0  0  0  0  0  0  0  0  0
  -12.9307  -19.2724   12.7954 O   0  0  0  0  0  0  0  0  0  0  0  0
  -13.7110  -21.3451   13.3845 O   0  0  0  0  0  0  0  0  0  0  0  0
  -12.9425  -21.2698   14.5900 C   0  0  0  0  0  0  0  0  0  0  0  0
  -12.8849  -22.6189   15.2889 C   0  0  0  0  0  0  0  0  0  0  0  0
  -11.6552  -22.4172   16.1494 C   0  0  0  0  0  0  0  0  0  0  0  0
  -11.2420  -23.7410   16.7624 C   0  0  0  0  0  0  0  0  0  0  0  0
  -12.3024  -24.2223   17.5862 O   0  0  0  0  0  0  0  0  0  0  0  0
  -13.7888  -24.3384   16.9603 P   0  0  0  0  0  0  0  0  0  0  0  0
  -14.8775  -24.6795   17.9243 O   0  0  0  0  0  0  0  0  0  0  0  0
  -13.9839  -22.9641   16.1174 O   0  0  0  0  0  0  0  0  0  0  0  0
  -13.5991  -25.4435   15.8075 O   0  0  0  0  0  0  0  0  0  0  0  0
  -10.6922  -21.8161   15.2889 O   0  0  0  0  0  0  0  0  0  0  0  0
  -11.4338  -20.9664   14.3653 C   0  0  0  0  0  0  0  0  0  0  0  0
  -10.9052  -21.2017   13.0342 N   0  0  0  0  0  0  0  0  0  0  0  0
  -10.7814  -22.4114   12.4013 C   0  0  0  0  0  0  0  0  0  0  0  0
  -10.2640  -22.2918   11.1953 N   0  0  0  0  0  0  0  0  0  0  0  0
  -10.0274  -20.9476   11.0424 C   0  0  0  0  0  0  0  0  0  0  0  0
  -10.4203  -20.2487   12.1733 C   0  0  0  0  0  0  0  0  0  0  0  0
  -10.3338  -18.9216   12.3641 N   0  0  0  0  0  0  0  0  0  0  0  0
   -9.8057  -18.2730   11.3024 C   0  0  0  0  0  0  0  0  0  0  0  0
   -9.3808  -18.8370   10.1545 N   0  0  0  0  0  0  0  0  0  0  0  0
   -9.4895  -20.1691   10.0244 C   0  0  0  0  0  0  0  0  0  0  0  0
   -9.0330  -20.6622    8.8349 O   0  0  0  0  0  0  0  0  0  0  0  0
   -9.7222  -16.8901   11.4793 N   0  0  0  0  0  0  0  0  0  0  0  0
   -8.5796  -16.1798   11.7761 C   0  0  0  0  0  0  0  0  0  0  0  0
   -7.4445  -16.6221   11.9131 O   0  0  0  0  0  0  0  0  0  0  0  0
   -8.8524  -14.7024   11.8973 C   0  0  0  0  0  0  0  0  0  0  0  0
  1  2  1  0
  2  3  1  0
  3  4  1  0
  4  5  2  0
  4  6  1  0
  6  7  1  0
  7  8  1  0
  7 17  1  0
  8  9  1  0
  8 14  1  0
  9 10  1  0
  9 16  1  0
 10 11  1  0
 11 12  1  0
 12 13  2  0
 12 14  1  0
 12 15  1  0
 16 17  1  0
 17 18  1  0
 18 19  1  0
 18 22  1  0
 19 20  2  0
 20 21  1  0
 21 22  2  0
 21 26  1  0
 22 23  1  0
 23 24  2  0
 24 25  1  0
 24 28  1  0
 25 26  2  0
 26 27  1  0
 28 29  1  0
 29 30  2  0
 29 31  1  0
M  END
>  <Gold.Gold.Protein.RotatedWaterAtoms>  (363) 


>  <Gold.Id.Protein>  (363) 


>  <Gold.PLP.Chemscore.CHOScore>  (363) 
0.0000

>  <Gold.PLP.Chemscore.Hbond>  (363) 
1.2080

>  <Gold.PLP.Chemscore.Internal.Correction>  (363) 
0.1232

>  <Gold.PLP.Chemscore.Metal>  (363) 
0.0000

>  <Gold.PLP.Fitness>  (363) 
47.7145

>  <Gold.PLP.PLP>  (363) 
-46.0218

>  <Gold.PLP.ligand.clash>  (363) 
0.0000

>  <Gold.PLP.ligand.torsion>  (363) 
1.0272

>  <Gold.PLP.part.buried>  (363) 
-2.2958

>  <Gold.PLP.part.hbond>  (363) 
-4.0214

>  <Gold.PLP.part.metal>  (363) 
0.0000

>  <Gold.PLP.part.nonpolar>  (363) 
-41.4699

>  <Gold.PLP.part.repulsive>  (363) 
0.9524

>  <Gold.Protein.RotatedAtoms>  (363) 


>  <Gold.Protein.RotatedTorsions>  (363) 


>  <Gold.Protein.RotatedWaterAtoms>  (363) 


>  <Gold.Version>  (363) 
5.3.0

>  <PLP.Chemscore.CHOScore>  (363) 


>  <PLP.Chemscore.Hbond>  (363) 


>  <PLP.Chemscore.Internal.Correction>  (363) 


>  <PLP.Chemscore.Metal>  (363) 


>  <PLP.Fitness>  (363) 


>  <PLP.PLP>  (363) 


>  <PLP.ligand.clash>  (363) 


>  <PLP.ligand.torsion>  (363) 


>  <PLP.part.buried>  (363) 


>  <PLP.part.hbond>  (363) 


>  <PLP.part.metal>  (363) 


>  <PLP.part.nonpolar>  (363) 


>  <PLP.part.repulsive>  (363) 


>  <RMSD>  (363) 
0.291955871297

>  <Torsion>  (363) 
171.923704933

>  <TorsionO>  (363) 
6.03609353985

>  <TorsionR>  (363) 
177.959798473

>  <Version>  (363) 


>  <product>  (363) 
21|Compound_12|Compounds_3D_F|sdf|5|dock2|1

>  <rmsd>  (363) 
-1

$$$$
193|32168_281|Aromatic_primary_amines_F|sdf|39|dock6|1
     RDKit          3D

 23 25  0  0  0  0  0  0  0  0999 V2000
   -7.8439  -12.1461   11.8919 C   0  0  0  0  0  0  0  0  0  0  0  0
   -8.5691  -13.4472   11.6781 C   0  0  0  0  0  0  0  0  0  0  0  0
   -9.7886  -13.4981   11.5208 O   0  0  0  0  0  0  0  0  0  0  0  0
   -7.7264  -14.5390   11.7020 N   0  0  0  0  0  0  0  0  0  0  0  0
   -8.1889  -15.8197   11.5323 C   0  0  0  0  0  0  0  0  0  0  0  0
   -9.4747  -16.2039   11.8163 N   0  0  0  0  0  0  0  0  0  0  0  0
   -9.5964  -17.5375   11.5379 C   0  0  0  0  0  0  0  0  0  0  0  0
  -10.6643  -18.4283   11.6415 C   0  0  0  0  0  0  0  0  0  0  0  0
  -10.4051  -19.7586   11.2778 C   0  0  0  0  0  0  0  0  0  0  0  0
   -9.1530  -20.1507   10.7795 C   0  0  0  0  0  0  0  0  0  0  0  0
   -8.1017  -19.2294   10.6839 C   0  0  0  0  0  0  0  0  0  0  0  0
   -8.3349  -17.9032   11.0783 C   0  0  0  0  0  0  0  0  0  0  0  0
   -7.4773  -16.8281   11.0838 N   0  0  0  0  0  0  0  0  0  0  0  0
   -8.8530  -21.7658   10.2429 Cl  0  0  0  0  0  0  0  0  0  0  0  0
  -11.4669  -20.6323   11.3734 O   0  0  0  0  0  0  0  0  0  0  0  0
  -12.5262  -20.4408   10.5053 C   0  0  0  0  0  0  0  0  0  0  0  0
  -13.3188  -19.2846   10.5304 C   0  0  0  0  0  0  0  0  0  0  0  0
  -14.3665  -19.1344    9.6224 C   0  0  0  0  0  0  0  0  0  0  0  0
  -14.6219  -20.1279    8.6796 C   0  0  0  0  0  0  0  0  0  0  0  0
  -13.8238  -21.2756    8.6345 C   0  0  0  0  0  0  0  0  0  0  0  0
  -12.7674  -21.4342    9.5416 C   0  0  0  0  0  0  0  0  0  0  0  0
  -11.7588  -22.8458    9.4996 Cl  0  0  0  0  0  0  0  0  0  0  0  0
  -14.1988  -22.4584    7.4296 Cl  0  0  0  0  0  0  0  0  0  0  0  0
  1  2  1  0
  2  3  2  0
  2  4  1  0
  4  5  1  0
  5  6  1  0
  5 13  2  0
  6  7  1  0
  7  8  2  0
  7 12  1  0
  8  9  1  0
  9 10  2  0
  9 15  1  0
 10 11  1  0
 10 14  1  0
 11 12  2  0
 12 13  1  0
 15 16  1  0
 16 17  2  0
 16 21  1  0
 17 18  1  0
 18 19  2  0
 19 20  1  0
 20 21  2  0
 20 23  1  0
 21 22  1  0
M  END
>  <Gold.Gold.Protein.RotatedWaterAtoms>  (364) 


>  <Gold.Id.Protein>  (364) 


>  <Gold.PLP.Chemscore.CHOScore>  (364) 
0.0000

>  <Gold.PLP.Chemscore.Hbond>  (364) 
1.0000

>  <Gold.PLP.Chemscore.Internal.Correction>  (364) 
0.0086

>  <Gold.PLP.Chemscore.Metal>  (364) 
0.0000

>  <Gold.PLP.Fitness>  (364) 
50.7139

>  <Gold.PLP.PLP>  (364) 
-48.1706

>  <Gold.PLP.ligand.clash>  (364) 
0.0000

>  <Gold.PLP.ligand.torsion>  (364) 
0.2327

>  <Gold.PLP.part.buried>  (364) 
-6.5205

>  <Gold.PLP.part.hbond>  (364) 
-2.0000

>  <Gold.PLP.part.metal>  (364) 
0.0000

>  <Gold.PLP.part.nonpolar>  (364) 
-39.3857

>  <Gold.PLP.part.repulsive>  (364) 
0.3298

>  <Gold.Protein.RotatedAtoms>  (364) 


>  <Gold.Protein.RotatedTorsions>  (364) 


>  <Gold.Protein.RotatedWaterAtoms>  (364) 


>  <Gold.Version>  (364) 
5.3.0

>  <PLP.Chemscore.CHOScore>  (364) 


>  <PLP.Chemscore.Hbond>  (364) 


>  <PLP.Chemscore.Internal.Correction>  (364) 


>  <PLP.Chemscore.Metal>  (364) 


>  <PLP.Fitness>  (364) 


>  <PLP.PLP>  (364) 


>  <PLP.ligand.clash>  (364) 


>  <PLP.ligand.torsion>  (364) 


>  <PLP.part.buried>  (364) 


>  <PLP.part.hbond>  (364) 


>  <PLP.part.metal>  (364) 


>  <PLP.part.nonpolar>  (364) 


>  <PLP.part.repulsive>  (364) 


>  <RMSD>  (364) 
0.439733510035

>  <Torsion>  (364) 
177.672185574

>  <TorsionO>  (364) 
4.31728583372

>  <TorsionR>  (364) 
173.35489974

>  <Version>  (364) 


>  <product>  (364) 
21|Compound_12|Compounds_3D_F|sdf|5|dock2|1

>  <rmsd>  (364) 
-1

$$$$
41|Compound_21|Compounds_3D_F|sdf|8|dock4|1
     RDKit          3D

 10  9  0  0  0  0  0  0  0  0999 V2000
   -5.3250  -15.3114    9.2692 O   0  0  0  0  0  0  0  0  0  0  0  0
   -6.0819  -15.8165   10.3706 C   0  0  0  0  0  0  0  0  0  0  0  0
   -5.2171  -15.8054   11.6321 C   0  0  0  0  0  0  0  0  0  0  0  0
   -4.8325  -14.4282   11.9488 N   0  0  0  0  0  0  0  0  0  0  0  0
   -5.7816  -13.4956   12.1634 C   0  0  0  0  0  0  0  0  0  0  0  0
   -6.9542  -13.7970   12.0939 O   0  0  0  0  0  0  0  0  0  0  0  0
   -5.3693  -12.0190   12.5030 B   0  0  0  0  0  0  0  0  0  0  0  0
   -6.0106  -16.3947   12.7998 C   0  0  0  0  0  0  0  0  0  0  0  0
   -3.9597  -16.6450   11.3953 C   0  0  0  0  0  0  0  0  0  0  0  0
   -4.3273  -18.0136   11.2120 O   0  0  0  0  0  0  0  0  0  0  0  0
  1  2  1  0
  2  3  1  0
  3  4  1  0
  3  8  1  0
  3  9  1  0
  4  5  1  0
  5  6  2  0
  5  7  1  0
  9 10  1  0
M  END
>  <Gold.Gold.Protein.RotatedWaterAtoms>  (365) 


>  <Gold.Id.Protein>  (365) 


>  <Gold.PLP.Chemscore.CHOScore>  (365) 
0.0000

>  <Gold.PLP.Chemscore.Hbond>  (365) 
1.9913

>  <Gold.PLP.Chemscore.Internal.Correction>  (365) 
0.0007

>  <Gold.PLP.Chemscore.Metal>  (365) 
0.0000

>  <Gold.PLP.Fitness>  (365) 
32.9850

>  <Gold.PLP.PLP>  (365) 
-27.0721

>  <Gold.PLP.ligand.clash>  (365) 
0.0000

>  <Gold.PLP.ligand.torsion>  (365) 
0.0308

>  <Gold.PLP.part.buried>  (365) 
-4.7320

>  <Gold.PLP.part.hbond>  (365) 
-4.0000

>  <Gold.PLP.part.metal>  (365) 
0.0000

>  <Gold.PLP.part.nonpolar>  (365) 
-18.7123

>  <Gold.PLP.part.repulsive>  (365) 
0.2403

>  <Gold.Protein.RotatedAtoms>  (365) 


>  <Gold.Protein.RotatedTorsions>  (365) 


>  <Gold.Protein.RotatedWaterAtoms>  (365) 


>  <Gold.Version>  (365) 
5.3.0

>  <PLP.Chemscore.CHOScore>  (365) 


>  <PLP.Chemscore.Hbond>  (365) 


>  <PLP.Chemscore.Internal.Correction>  (365) 


>  <PLP.Chemscore.Metal>  (365) 


>  <PLP.Fitness>  (365) 


>  <PLP.PLP>  (365) 


>  <PLP.ligand.clash>  (365) 


>  <PLP.ligand.torsion>  (365) 


>  <PLP.part.buried>  (365) 


>  <PLP.part.hbond>  (365) 


>  <PLP.part.metal>  (365) 


>  <PLP.part.nonpolar>  (365) 


>  <PLP.part.repulsive>  (365) 


>  <Version>  (365) 


$$$$
94|664022_40|Aromatic_carboxylic_acids_F|sdf|24|dock1|1
     RDKit          3D

 12 12  0  0  0  0  0  0  0  0999 V2000
   -8.2596  -17.1212   11.4595 C   0  0  0  0  0  0  0  0  0  0  0  0
   -7.6366  -15.8367   11.6688 N   0  0  0  0  0  0  0  0  0  0  0  0
   -8.3409  -14.6553   11.5719 C   0  0  0  0  0  0  0  0  0  0  0  0
   -9.5296  -14.5547   11.2978 O   0  0  0  0  0  0  0  0  0  0  0  0
   -7.5420  -13.4431   11.8503 C   0  0  0  0  0  0  0  0  0  0  0  0
   -8.1627  -12.1983   11.6738 C   0  0  0  0  0  0  0  0  0  0  0  0
   -7.4390  -11.0301   11.9055 C   0  0  0  0  0  0  0  0  0  0  0  0
   -6.1069  -11.0910   12.3103 C   0  0  0  0  0  0  0  0  0  0  0  0
   -5.4897  -12.3324   12.4853 C   0  0  0  0  0  0  0  0  0  0  0  0
   -6.2035  -13.5136   12.2549 C   0  0  0  0  0  0  0  0  0  0  0  0
   -5.3062  -15.1564   12.5638 Br  0  0  0  0  0  0  0  0  0  0  0  0
   -8.1960   -9.5005   11.6887 Cl  0  0  0  0  0  0  0  0  0  0  0  0
  1  2  1  0
  2  3  1  0
  3  4  2  0
  3  5  1  0
  5  6  2  0
  5 10  1  0
  6  7  1  0
  7  8  2  0
  7 12  1  0
  8  9  1  0
  9 10  2  0
 10 11  1  0
M  END
>  <Gold.Gold.Protein.RotatedWaterAtoms>  (366) 


>  <Gold.Id.Protein>  (366) 


>  <Gold.PLP.Chemscore.CHOScore>  (366) 
0.0000

>  <Gold.PLP.Chemscore.Hbond>  (366) 
0.4160

>  <Gold.PLP.Chemscore.Internal.Correction>  (366) 
0.0004

>  <Gold.PLP.Chemscore.Metal>  (366) 
0.0000

>  <Gold.PLP.Fitness>  (366) 
48.9046

>  <Gold.PLP.PLP>  (366) 
-47.6744

>  <Gold.PLP.ligand.clash>  (366) 
0.0000

>  <Gold.PLP.ligand.torsion>  (366) 
0.0091

>  <Gold.PLP.part.buried>  (366) 
-7.3578

>  <Gold.PLP.part.hbond>  (366) 
-0.5127

>  <Gold.PLP.part.metal>  (366) 
0.0000

>  <Gold.PLP.part.nonpolar>  (366) 
-40.3098

>  <Gold.PLP.part.repulsive>  (366) 
0.1684

>  <Gold.Protein.RotatedAtoms>  (366) 


>  <Gold.Protein.RotatedTorsions>  (366) 


>  <Gold.Protein.RotatedWaterAtoms>  (366) 


>  <Gold.Version>  (366) 
5.3.0

>  <PLP.Chemscore.CHOScore>  (366) 


>  <PLP.Chemscore.Hbond>  (366) 


>  <PLP.Chemscore.Internal.Correction>  (366) 


>  <PLP.Chemscore.Metal>  (366) 


>  <PLP.Fitness>  (366) 


>  <PLP.PLP>  (366) 


>  <PLP.ligand.clash>  (366) 


>  <PLP.ligand.torsion>  (366) 


>  <PLP.part.buried>  (366) 


>  <PLP.part.hbond>  (366) 


>  <PLP.part.metal>  (366) 


>  <PLP.part.nonpolar>  (366) 


>  <PLP.part.repulsive>  (366) 


>  <RMSD>  (366) 
0.30972197429

>  <Torsion>  (366) 
172.929186758

>  <TorsionO>  (366) 
24.4968065243

>  <TorsionR>  (366) 
162.574006718

>  <Version>  (366) 


>  <product>  (366) 
41|Compound_21|Compounds_3D_F|sdf|8|dock4|1

>  <rmsd>  (366) 
-1

$$$$
110|565385_49|Aromatic_carboxylic_acids_F|sdf|29|dock1|1
     RDKit          3D

 13 13  0  0  0  0  0  0  0  0999 V2000
  -10.1118  -17.9021   11.6320 C   0  0  0  0  0  0  0  0  0  0  0  0
   -9.7537  -16.5043   11.6546 N   0  0  0  0  0  0  0  0  0  0  0  0
   -8.4330  -16.1187   11.7930 C   0  0  0  0  0  0  0  0  0  0  0  0
   -7.5159  -16.9298   11.9008 O   0  0  0  0  0  0  0  0  0  0  0  0
   -8.1234  -14.6552   11.8105 C   0  0  0  0  0  0  0  0  0  0  0  0
   -9.0636  -13.6551   11.5375 C   0  0  0  0  0  0  0  0  0  0  0  0
   -8.6966  -12.3009   11.5726 C   0  0  0  0  0  0  0  0  0  0  0  0
   -7.3879  -11.9195   11.8809 C   0  0  0  0  0  0  0  0  0  0  0  0
   -6.4486  -12.9235   12.1551 C   0  0  0  0  0  0  0  0  0  0  0  0
   -6.8098  -14.2750   12.1207 C   0  0  0  0  0  0  0  0  0  0  0  0
   -4.6444  -12.5025   12.5849 Br  0  0  0  0  0  0  0  0  0  0  0  0
   -6.9476  -10.6242   11.9372 O   0  0  0  0  0  0  0  0  0  0  0  0
   -7.9020   -9.5910   11.7256 C   0  0  0  0  0  0  0  0  0  0  0  0
  1  2  1  0
  2  3  1  0
  3  4  2  0
  3  5  1  0
  5  6  2  0
  5 10  1  0
  6  7  1  0
  7  8  2  0
  8  9  1  0
  8 12  1  0
  9 10  2  0
  9 11  1  0
 12 13  1  0
M  END
>  <Gold.Gold.Protein.RotatedWaterAtoms>  (367) 


>  <Gold.Id.Protein>  (367) 


>  <Gold.PLP.Chemscore.CHOScore>  (367) 
0.0000

>  <Gold.PLP.Chemscore.Hbond>  (367) 
1.0000

>  <Gold.PLP.Chemscore.Internal.Correction>  (367) 
0.0000

>  <Gold.PLP.Chemscore.Metal>  (367) 
0.0000

>  <Gold.PLP.Fitness>  (367) 
43.9775

>  <Gold.PLP.PLP>  (367) 
-41.0517

>  <Gold.PLP.ligand.clash>  (367) 
0.0000

>  <Gold.PLP.ligand.torsion>  (367) 
0.0371

>  <Gold.PLP.part.buried>  (367) 
-3.7367

>  <Gold.PLP.part.hbond>  (367) 
-1.0000

>  <Gold.PLP.part.metal>  (367) 
0.0000

>  <Gold.PLP.part.nonpolar>  (367) 
-36.7483

>  <Gold.PLP.part.repulsive>  (367) 
0.4054

>  <Gold.Protein.RotatedAtoms>  (367) 


>  <Gold.Protein.RotatedTorsions>  (367) 


>  <Gold.Protein.RotatedWaterAtoms>  (367) 


>  <Gold.Version>  (367) 
5.3.0

>  <PLP.Chemscore.CHOScore>  (367) 


>  <PLP.Chemscore.Hbond>  (367) 


>  <PLP.Chemscore.Internal.Correction>  (367) 


>  <PLP.Chemscore.Metal>  (367) 


>  <PLP.Fitness>  (367) 


>  <PLP.PLP>  (367) 


>  <PLP.ligand.clash>  (367) 


>  <PLP.ligand.torsion>  (367) 


>  <PLP.part.buried>  (367) 


>  <PLP.part.hbond>  (367) 


>  <PLP.part.metal>  (367) 


>  <PLP.part.nonpolar>  (367) 


>  <PLP.part.repulsive>  (367) 


>  <RMSD>  (367) 
0.319376411377

>  <Torsion>  (367) 
169.460450784

>  <TorsionO>  (367) 
9.7963905484

>  <TorsionR>  (367) 
179.256841332

>  <Version>  (367) 


>  <product>  (367) 
41|Compound_21|Compounds_3D_F|sdf|8|dock4|1

>  <rmsd>  (367) 
-1

$$$$
128|137677_56|Aromatic_carboxylic_acids_F|sdf|33|dock1|1
     RDKit          3D

 11 11  0  0  0  0  0  0  0  0999 V2000
   -8.6116  -16.1544   11.8887 C   0  0  0  0  0  0  0  0  0  0  0  0
   -7.9978  -14.8484   11.9215 N   0  0  0  0  0  0  0  0  0  0  0  0
   -8.7778  -13.7008   11.8756 C   0  0  0  0  0  0  0  0  0  0  0  0
  -10.0002  -13.7896   11.8139 O   0  0  0  0  0  0  0  0  0  0  0  0
   -8.0808  -12.3609   11.9017 C   0  0  0  0  0  0  0  0  0  0  0  0
   -8.7916  -11.1851   11.5813 C   0  0  0  0  0  0  0  0  0  0  0  0
   -8.1781   -9.9267   11.5989 C   0  0  0  0  0  0  0  0  0  0  0  0
   -6.8391   -9.8089   11.9369 C   0  0  0  0  0  0  0  0  0  0  0  0
   -6.1124  -10.9502   12.2575 C   0  0  0  0  0  0  0  0  0  0  0  0
   -6.7171  -12.2196   12.2428 C   0  0  0  0  0  0  0  0  0  0  0  0
   -5.5419  -13.6455   12.7121 Br  0  0  0  0  0  0  0  0  0  0  0  0
  1  2  1  0
  2  3  1  0
  3  4  2  0
  3  5  1  0
  5  6  2  0
  5 10  1  0
  6  7  1  0
  7  8  2  0
  8  9  1  0
  9 10  2  0
 10 11  1  0
M  END
>  <Gold.Gold.Protein.RotatedWaterAtoms>  (368) 


>  <Gold.Id.Protein>  (368) 


>  <Gold.PLP.Chemscore.CHOScore>  (368) 
0.0000

>  <Gold.PLP.Chemscore.Hbond>  (368) 
1.0000

>  <Gold.PLP.Chemscore.Internal.Correction>  (368) 
0.0000

>  <Gold.PLP.Chemscore.Metal>  (368) 
0.0000

>  <Gold.PLP.Fitness>  (368) 
45.2899

>  <Gold.PLP.PLP>  (368) 
-42.4444

>  <Gold.PLP.ligand.clash>  (368) 
0.0000

>  <Gold.PLP.ligand.torsion>  (368) 
0.0772

>  <Gold.PLP.part.buried>  (368) 
-6.4690

>  <Gold.PLP.part.hbond>  (368) 
-0.6863

>  <Gold.PLP.part.metal>  (368) 
0.0000

>  <Gold.PLP.part.nonpolar>  (368) 
-34.8280

>  <Gold.PLP.part.repulsive>  (368) 
0.1963

>  <Gold.Protein.RotatedAtoms>  (368) 


>  <Gold.Protein.RotatedTorsions>  (368) 


>  <Gold.Protein.RotatedWaterAtoms>  (368) 


>  <Gold.Version>  (368) 
5.3.0

>  <PLP.Chemscore.CHOScore>  (368) 


>  <PLP.Chemscore.Hbond>  (368) 


>  <PLP.Chemscore.Internal.Correction>  (368) 


>  <PLP.Chemscore.Metal>  (368) 


>  <PLP.Fitness>  (368) 


>  <PLP.PLP>  (368) 


>  <PLP.ligand.clash>  (368) 


>  <PLP.ligand.torsion>  (368) 


>  <PLP.part.buried>  (368) 


>  <PLP.part.hbond>  (368) 


>  <PLP.part.metal>  (368) 


>  <PLP.part.nonpolar>  (368) 


>  <PLP.part.repulsive>  (368) 


>  <RMSD>  (368) 
0.428070490903

>  <Torsion>  (368) 
152.444048788

>  <TorsionO>  (368) 
39.0580871276

>  <TorsionR>  (368) 
168.497864085

>  <Version>  (368) 


>  <product>  (368) 
41|Compound_21|Compounds_3D_F|sdf|8|dock4|1

>  <rmsd>  (368) 
-1

$$$$
974|750794_1404|Aromatic_primary_amines_F|sdf|194|dock3|1
     RDKit          3D

 14 14  0  0  0  0  0  0  0  0999 V2000
  -13.6355  -18.1936    9.4145 C   0  0  0  0  0  0  0  0  0  0  0  0
  -13.2544  -19.4497   10.1732 C   0  0  0  0  0  0  0  0  0  0  0  0
  -11.8731  -19.3506   10.5383 O   0  0  0  0  0  0  0  0  0  0  0  0
  -11.6148  -18.5085   11.5823 C   0  0  0  0  0  0  0  0  0  0  0  0
  -12.3947  -18.2810   12.5004 O   0  0  0  0  0  0  0  0  0  0  0  0
  -10.3031  -17.8985   11.4902 C   0  0  0  0  0  0  0  0  0  0  0  0
   -9.1673  -18.4974   10.9931 C   0  0  0  0  0  0  0  0  0  0  0  0
   -8.1448  -17.6055   11.0758 O   0  0  0  0  0  0  0  0  0  0  0  0
   -8.7110  -16.4917   11.6237 C   0  0  0  0  0  0  0  0  0  0  0  0
   -9.9933  -16.6110   11.8915 N   0  0  0  0  0  0  0  0  0  0  0  0
   -7.9611  -15.3718   11.8549 N   0  0  0  0  0  0  0  0  0  0  0  0
   -8.5046  -14.1249   12.0676 C   0  0  0  0  0  0  0  0  0  0  0  0
   -9.6950  -13.8313   12.1035 O   0  0  0  0  0  0  0  0  0  0  0  0
   -7.4448  -13.0785   12.3021 C   0  0  0  0  0  0  0  0  0  0  0  0
  1  2  1  0
  2  3  1  0
  3  4  1  0
  4  5  2  0
  4  6  1  0
  6  7  2  0
  6 10  1  0
  7  8  1  0
  8  9  1  0
  9 10  2  0
  9 11  1  0
 11 12  1  0
 12 13  2  0
 12 14  1  0
M  END
>  <Gold.Gold.Protein.RotatedWaterAtoms>  (369) 


>  <Gold.Id.Protein>  (369) 


>  <Gold.PLP.Chemscore.CHOScore>  (369) 
0.0000

>  <Gold.PLP.Chemscore.Hbond>  (369) 
2.0000

>  <Gold.PLP.Chemscore.Internal.Correction>  (369) 
0.0053

>  <Gold.PLP.Chemscore.Metal>  (369) 
0.0000

>  <Gold.PLP.Fitness>  (369) 
36.8047

>  <Gold.PLP.PLP>  (369) 
-32.7996

>  <Gold.PLP.ligand.clash>  (369) 
0.0000

>  <Gold.PLP.ligand.torsion>  (369) 
1.0001

>  <Gold.PLP.part.buried>  (369) 
-6.5206

>  <Gold.PLP.part.hbond>  (369) 
-2.9156

>  <Gold.PLP.part.metal>  (369) 
0.0000

>  <Gold.PLP.part.nonpolar>  (369) 
-23.4080

>  <Gold.PLP.part.repulsive>  (369) 
0.3100

>  <Gold.Protein.RotatedAtoms>  (369) 


>  <Gold.Protein.RotatedTorsions>  (369) 


>  <Gold.Protein.RotatedWaterAtoms>  (369) 


>  <Gold.Version>  (369) 
5.3.0

>  <PLP.Chemscore.CHOScore>  (369) 


>  <PLP.Chemscore.Hbond>  (369) 


>  <PLP.Chemscore.Internal.Correction>  (369) 


>  <PLP.Chemscore.Metal>  (369) 


>  <PLP.Fitness>  (369) 


>  <PLP.PLP>  (369) 


>  <PLP.ligand.clash>  (369) 


>  <PLP.ligand.torsion>  (369) 


>  <PLP.part.buried>  (369) 


>  <PLP.part.hbond>  (369) 


>  <PLP.part.metal>  (369) 


>  <PLP.part.nonpolar>  (369) 


>  <PLP.part.repulsive>  (369) 


>  <RMSD>  (369) 
0.499949349045

>  <Torsion>  (369) 
159.973716791

>  <TorsionO>  (369) 
19.1052109979

>  <TorsionR>  (369) 
179.078927789

>  <Version>  (369) 


>  <product>  (369) 
41|Compound_21|Compounds_3D_F|sdf|8|dock4|1

>  <rmsd>  (369) 
-1

$$$$
1884|M3006_1781|Aromatic_primary_amines_F|sdf|361|dock3|1
     RDKit          3D

 31 34  0  0  0  0  0  0  0  0999 V2000
  -14.4210  -19.8971    8.7934 C   0  0  0  0  0  0  0  0  0  0  0  0
  -13.9762  -19.4927   10.1894 C   0  0  0  0  0  0  0  0  0  0  0  0
  -14.1356  -20.6409   11.1817 C   0  0  0  0  0  0  0  0  0  0  0  0
  -13.5197  -20.3070   12.5189 C   0  0  0  0  0  0  0  0  0  0  0  0
  -12.9307  -19.2724   12.7954 O   0  0  0  0  0  0  0  0  0  0  0  0
  -13.7110  -21.3451   13.3845 O   0  0  0  0  0  0  0  0  0  0  0  0
  -12.9425  -21.2698   14.5900 C   0  0  0  0  0  0  0  0  0  0  0  0
  -12.8849  -22.6189   15.2889 C   0  0  0  0  0  0  0  0  0  0  0  0
  -11.6552  -22.4172   16.1494 C   0  0  0  0  0  0  0  0  0  0  0  0
  -11.2420  -23.7410   16.7624 C   0  0  0  0  0  0  0  0  0  0  0  0
  -12.3024  -24.2223   17.5862 O   0  0  0  0  0  0  0  0  0  0  0  0
  -13.7888  -24.3384   16.9603 P   0  0  0  0  0  0  0  0  0  0  0  0
  -14.8775  -24.6795   17.9243 O   0  0  0  0  0  0  0  0  0  0  0  0
  -13.9839  -22.9641   16.1174 O   0  0  0  0  0  0  0  0  0  0  0  0
  -13.5991  -25.4435   15.8075 O   0  0  0  0  0  0  0  0  0  0  0  0
  -10.6922  -21.8161   15.2889 O   0  0  0  0  0  0  0  0  0  0  0  0
  -11.4338  -20.9664   14.3653 C   0  0  0  0  0  0  0  0  0  0  0  0
  -10.9052  -21.2017   13.0342 N   0  0  0  0  0  0  0  0  0  0  0  0
  -10.7814  -22.4114   12.4013 C   0  0  0  0  0  0  0  0  0  0  0  0
  -10.2640  -22.2918   11.1953 N   0  0  0  0  0  0  0  0  0  0  0  0
  -10.0274  -20.9476   11.0424 C   0  0  0  0  0  0  0  0  0  0  0  0
  -10.4203  -20.2487   12.1733 C   0  0  0  0  0  0  0  0  0  0  0  0
  -10.3338  -18.9216   12.3641 N   0  0  0  0  0  0  0  0  0  0  0  0
   -9.8057  -18.2730   11.3024 C   0  0  0  0  0  0  0  0  0  0  0  0
   -9.3808  -18.8370   10.1545 N   0  0  0  0  0  0  0  0  0  0  0  0
   -9.4895  -20.1691   10.0244 C   0  0  0  0  0  0  0  0  0  0  0  0
   -9.0330  -20.6622    8.8349 O   0  0  0  0  0  0  0  0  0  0  0  0
   -9.7222  -16.8901   11.4793 N   0  0  0  0  0  0  0  0  0  0  0  0
   -8.5796  -16.1798   11.7761 C   0  0  0  0  0  0  0  0  0  0  0  0
   -7.4445  -16.6221   11.9131 O   0  0  0  0  0  0  0  0  0  0  0  0
   -8.8524  -14.7024   11.8973 C   0  0  0  0  0  0  0  0  0  0  0  0
  1  2  1  0
  2  3  1  0
  3  4  1  0
  4  5  2  0
  4  6  1  0
  6  7  1  0
  7  8  1  0
  7 17  1  0
  8  9  1  0
  8 14  1  0
  9 10  1  0
  9 16  1  0
 10 11  1  0
 11 12  1  0
 12 13  2  0
 12 14  1  0
 12 15  1  0
 16 17  1  0
 17 18  1  0
 18 19  1  0
 18 22  1  0
 19 20  2  0
 20 21  1  0
 21 22  2  0
 21 26  1  0
 22 23  1  0
 23 24  2  0
 24 25  1  0
 24 28  1  0
 25 26  2  0
 26 27  1  0
 28 29  1  0
 29 30  2  0
 29 31  1  0
M  END
>  <Gold.Gold.Protein.RotatedWaterAtoms>  (370) 


>  <Gold.Id.Protein>  (370) 


>  <Gold.PLP.Chemscore.CHOScore>  (370) 
0.0000

>  <Gold.PLP.Chemscore.Hbond>  (370) 
1.2080

>  <Gold.PLP.Chemscore.Internal.Correction>  (370) 
0.1232

>  <Gold.PLP.Chemscore.Metal>  (370) 
0.0000

>  <Gold.PLP.Fitness>  (370) 
47.7145

>  <Gold.PLP.PLP>  (370) 
-46.0218

>  <Gold.PLP.ligand.clash>  (370) 
0.0000

>  <Gold.PLP.ligand.torsion>  (370) 
1.0272

>  <Gold.PLP.part.buried>  (370) 
-2.2958

>  <Gold.PLP.part.hbond>  (370) 
-4.0214

>  <Gold.PLP.part.metal>  (370) 
0.0000

>  <Gold.PLP.part.nonpolar>  (370) 
-41.4699

>  <Gold.PLP.part.repulsive>  (370) 
0.9524

>  <Gold.Protein.RotatedAtoms>  (370) 


>  <Gold.Protein.RotatedTorsions>  (370) 


>  <Gold.Protein.RotatedWaterAtoms>  (370) 


>  <Gold.Version>  (370) 
5.3.0

>  <PLP.Chemscore.CHOScore>  (370) 


>  <PLP.Chemscore.Hbond>  (370) 


>  <PLP.Chemscore.Internal.Correction>  (370) 


>  <PLP.Chemscore.Metal>  (370) 


>  <PLP.Fitness>  (370) 


>  <PLP.PLP>  (370) 


>  <PLP.ligand.clash>  (370) 


>  <PLP.ligand.torsion>  (370) 


>  <PLP.part.buried>  (370) 


>  <PLP.part.hbond>  (370) 


>  <PLP.part.metal>  (370) 


>  <PLP.part.nonpolar>  (370) 


>  <PLP.part.repulsive>  (370) 


>  <RMSD>  (370) 
0.291955871297

>  <Torsion>  (370) 
171.923704933

>  <TorsionO>  (370) 
6.03609353985

>  <TorsionR>  (370) 
177.959798473

>  <Version>  (370) 


>  <product>  (370) 
41|Compound_21|Compounds_3D_F|sdf|8|dock4|1

>  <rmsd>  (370) 
-1

$$$$
193|32168_281|Aromatic_primary_amines_F|sdf|39|dock6|1
     RDKit          3D

 23 25  0  0  0  0  0  0  0  0999 V2000
   -7.8439  -12.1461   11.8919 C   0  0  0  0  0  0  0  0  0  0  0  0
   -8.5691  -13.4472   11.6781 C   0  0  0  0  0  0  0  0  0  0  0  0
   -9.7886  -13.4981   11.5208 O   0  0  0  0  0  0  0  0  0  0  0  0
   -7.7264  -14.5390   11.7020 N   0  0  0  0  0  0  0  0  0  0  0  0
   -8.1889  -15.8197   11.5323 C   0  0  0  0  0  0  0  0  0  0  0  0
   -9.4747  -16.2039   11.8163 N   0  0  0  0  0  0  0  0  0  0  0  0
   -9.5964  -17.5375   11.5379 C   0  0  0  0  0  0  0  0  0  0  0  0
  -10.6643  -18.4283   11.6415 C   0  0  0  0  0  0  0  0  0  0  0  0
  -10.4051  -19.7586   11.2778 C   0  0  0  0  0  0  0  0  0  0  0  0
   -9.1530  -20.1507   10.7795 C   0  0  0  0  0  0  0  0  0  0  0  0
   -8.1017  -19.2294   10.6839 C   0  0  0  0  0  0  0  0  0  0  0  0
   -8.3349  -17.9032   11.0783 C   0  0  0  0  0  0  0  0  0  0  0  0
   -7.4773  -16.8281   11.0838 N   0  0  0  0  0  0  0  0  0  0  0  0
   -8.8530  -21.7658   10.2429 Cl  0  0  0  0  0  0  0  0  0  0  0  0
  -11.4669  -20.6323   11.3734 O   0  0  0  0  0  0  0  0  0  0  0  0
  -12.5262  -20.4408   10.5053 C   0  0  0  0  0  0  0  0  0  0  0  0
  -13.3188  -19.2846   10.5304 C   0  0  0  0  0  0  0  0  0  0  0  0
  -14.3665  -19.1344    9.6224 C   0  0  0  0  0  0  0  0  0  0  0  0
  -14.6219  -20.1279    8.6796 C   0  0  0  0  0  0  0  0  0  0  0  0
  -13.8238  -21.2756    8.6345 C   0  0  0  0  0  0  0  0  0  0  0  0
  -12.7674  -21.4342    9.5416 C   0  0  0  0  0  0  0  0  0  0  0  0
  -11.7588  -22.8458    9.4996 Cl  0  0  0  0  0  0  0  0  0  0  0  0
  -14.1988  -22.4584    7.4296 Cl  0  0  0  0  0  0  0  0  0  0  0  0
  1  2  1  0
  2  3  2  0
  2  4  1  0
  4  5  1  0
  5  6  1  0
  5 13  2  0
  6  7  1  0
  7  8  2  0
  7 12  1  0
  8  9  1  0
  9 10  2  0
  9 15  1  0
 10 11  1  0
 10 14  1  0
 11 12  2  0
 12 13  1  0
 15 16  1  0
 16 17  2  0
 16 21  1  0
 17 18  1  0
 18 19  2  0
 19 20  1  0
 20 21  2  0
 20 23  1  0
 21 22  1  0
M  END
>  <Gold.Gold.Protein.RotatedWaterAtoms>  (371) 


>  <Gold.Id.Protein>  (371) 


>  <Gold.PLP.Chemscore.CHOScore>  (371) 
0.0000

>  <Gold.PLP.Chemscore.Hbond>  (371) 
1.0000

>  <Gold.PLP.Chemscore.Internal.Correction>  (371) 
0.0086

>  <Gold.PLP.Chemscore.Metal>  (371) 
0.0000

>  <Gold.PLP.Fitness>  (371) 
50.7139

>  <Gold.PLP.PLP>  (371) 
-48.1706

>  <Gold.PLP.ligand.clash>  (371) 
0.0000

>  <Gold.PLP.ligand.torsion>  (371) 
0.2327

>  <Gold.PLP.part.buried>  (371) 
-6.5205

>  <Gold.PLP.part.hbond>  (371) 
-2.0000

>  <Gold.PLP.part.metal>  (371) 
0.0000

>  <Gold.PLP.part.nonpolar>  (371) 
-39.3857

>  <Gold.PLP.part.repulsive>  (371) 
0.3298

>  <Gold.Protein.RotatedAtoms>  (371) 


>  <Gold.Protein.RotatedTorsions>  (371) 


>  <Gold.Protein.RotatedWaterAtoms>  (371) 


>  <Gold.Version>  (371) 
5.3.0

>  <PLP.Chemscore.CHOScore>  (371) 


>  <PLP.Chemscore.Hbond>  (371) 


>  <PLP.Chemscore.Internal.Correction>  (371) 


>  <PLP.Chemscore.Metal>  (371) 


>  <PLP.Fitness>  (371) 


>  <PLP.PLP>  (371) 


>  <PLP.ligand.clash>  (371) 


>  <PLP.ligand.torsion>  (371) 


>  <PLP.part.buried>  (371) 


>  <PLP.part.hbond>  (371) 


>  <PLP.part.metal>  (371) 


>  <PLP.part.nonpolar>  (371) 


>  <PLP.part.repulsive>  (371) 


>  <RMSD>  (371) 
0.439733510035

>  <Torsion>  (371) 
177.672185574

>  <TorsionO>  (371) 
4.31728583372

>  <TorsionR>  (371) 
173.35489974

>  <Version>  (371) 


>  <product>  (371) 
41|Compound_21|Compounds_3D_F|sdf|8|dock4|1

>  <rmsd>  (371) 
-1

$$$$
49|Compound_23|Compounds_3D_F|sdf|9|dock4|1
     RDKit          3D

 11 10  0  0  0  0  0  0  0  0999 V2000
   -5.8942  -14.9894    9.4015 O   0  0  0  0  0  0  0  0  0  0  0  0
   -6.5586  -15.5113   10.4435 C   0  0  0  0  0  0  0  0  0  0  0  0
   -5.9550  -16.0838   11.3207 O   0  0  0  0  0  0  0  0  0  0  0  0
   -8.0584  -15.3850   10.5209 C   0  0  0  0  0  0  0  0  0  0  0  0
   -8.4273  -13.9676   10.5549 N   0  0  0  0  0  0  0  0  0  0  0  0
   -7.9852  -13.1799   11.5557 C   0  0  0  0  0  0  0  0  0  0  0  0
   -7.2815  -13.6444   12.4268 O   0  0  0  0  0  0  0  0  0  0  0  0
   -8.3804  -11.6611   11.5917 B   0  0  0  0  0  0  0  0  0  0  0  0
   -8.5634  -16.0735   11.7903 C   0  0  0  0  0  0  0  0  0  0  0  0
   -8.6907  -16.0478    9.2949 C   0  0  0  0  0  0  0  0  0  0  0  0
   -9.9868  -15.4910    9.0691 O   0  0  0  0  0  0  0  0  0  0  0  0
  1  2  1  0
  2  3  2  0
  2  4  1  0
  4  5  1  0
  4  9  1  0
  4 10  1  0
  5  6  1  0
  6  7  2  0
  6  8  1  0
 10 11  1  0
M  END
>  <Gold.Gold.Protein.RotatedWaterAtoms>  (372) 


>  <Gold.Id.Protein>  (372) 


>  <Gold.PLP.Chemscore.CHOScore>  (372) 
0.0000

>  <Gold.PLP.Chemscore.Hbond>  (372) 
2.9987

>  <Gold.PLP.Chemscore.Internal.Correction>  (372) 
0.0006

>  <Gold.PLP.Chemscore.Metal>  (372) 
0.0000

>  <Gold.PLP.Fitness>  (372) 
31.7451

>  <Gold.PLP.PLP>  (372) 
-23.4842

>  <Gold.PLP.ligand.clash>  (372) 
0.0000

>  <Gold.PLP.ligand.torsion>  (372) 
0.3679

>  <Gold.PLP.part.buried>  (372) 
-5.1318

>  <Gold.PLP.part.hbond>  (372) 
-5.0000

>  <Gold.PLP.part.metal>  (372) 
0.0000

>  <Gold.PLP.part.nonpolar>  (372) 
-13.9075

>  <Gold.PLP.part.repulsive>  (372) 
0.3202

>  <Gold.Protein.RotatedAtoms>  (372) 


>  <Gold.Protein.RotatedTorsions>  (372) 


>  <Gold.Protein.RotatedWaterAtoms>  (372) 


>  <Gold.Version>  (372) 
5.3.0

>  <PLP.Chemscore.CHOScore>  (372) 


>  <PLP.Chemscore.Hbond>  (372) 


>  <PLP.Chemscore.Internal.Correction>  (372) 


>  <PLP.Chemscore.Metal>  (372) 


>  <PLP.Fitness>  (372) 


>  <PLP.PLP>  (372) 


>  <PLP.ligand.clash>  (372) 


>  <PLP.ligand.torsion>  (372) 


>  <PLP.part.buried>  (372) 


>  <PLP.part.hbond>  (372) 


>  <PLP.part.metal>  (372) 


>  <PLP.part.nonpolar>  (372) 


>  <PLP.part.repulsive>  (372) 


>  <Version>  (372) 


$$$$
94|664022_40|Aromatic_carboxylic_acids_F|sdf|24|dock1|1
     RDKit          3D

 12 12  0  0  0  0  0  0  0  0999 V2000
   -8.2596  -17.1212   11.4595 C   0  0  0  0  0  0  0  0  0  0  0  0
   -7.6366  -15.8367   11.6688 N   0  0  0  0  0  0  0  0  0  0  0  0
   -8.3409  -14.6553   11.5719 C   0  0  0  0  0  0  0  0  0  0  0  0
   -9.5296  -14.5547   11.2978 O   0  0  0  0  0  0  0  0  0  0  0  0
   -7.5420  -13.4431   11.8503 C   0  0  0  0  0  0  0  0  0  0  0  0
   -8.1627  -12.1983   11.6738 C   0  0  0  0  0  0  0  0  0  0  0  0
   -7.4390  -11.0301   11.9055 C   0  0  0  0  0  0  0  0  0  0  0  0
   -6.1069  -11.0910   12.3103 C   0  0  0  0  0  0  0  0  0  0  0  0
   -5.4897  -12.3324   12.4853 C   0  0  0  0  0  0  0  0  0  0  0  0
   -6.2035  -13.5136   12.2549 C   0  0  0  0  0  0  0  0  0  0  0  0
   -5.3062  -15.1564   12.5638 Br  0  0  0  0  0  0  0  0  0  0  0  0
   -8.1960   -9.5005   11.6887 Cl  0  0  0  0  0  0  0  0  0  0  0  0
  1  2  1  0
  2  3  1  0
  3  4  2  0
  3  5  1  0
  5  6  2  0
  5 10  1  0
  6  7  1  0
  7  8  2  0
  7 12  1  0
  8  9  1  0
  9 10  2  0
 10 11  1  0
M  END
>  <Gold.Gold.Protein.RotatedWaterAtoms>  (373) 


>  <Gold.Id.Protein>  (373) 


>  <Gold.PLP.Chemscore.CHOScore>  (373) 
0.0000

>  <Gold.PLP.Chemscore.Hbond>  (373) 
0.4160

>  <Gold.PLP.Chemscore.Internal.Correction>  (373) 
0.0004

>  <Gold.PLP.Chemscore.Metal>  (373) 
0.0000

>  <Gold.PLP.Fitness>  (373) 
48.9046

>  <Gold.PLP.PLP>  (373) 
-47.6744

>  <Gold.PLP.ligand.clash>  (373) 
0.0000

>  <Gold.PLP.ligand.torsion>  (373) 
0.0091

>  <Gold.PLP.part.buried>  (373) 
-7.3578

>  <Gold.PLP.part.hbond>  (373) 
-0.5127

>  <Gold.PLP.part.metal>  (373) 
0.0000

>  <Gold.PLP.part.nonpolar>  (373) 
-40.3098

>  <Gold.PLP.part.repulsive>  (373) 
0.1684

>  <Gold.Protein.RotatedAtoms>  (373) 


>  <Gold.Protein.RotatedTorsions>  (373) 


>  <Gold.Protein.RotatedWaterAtoms>  (373) 


>  <Gold.Version>  (373) 
5.3.0

>  <PLP.Chemscore.CHOScore>  (373) 


>  <PLP.Chemscore.Hbond>  (373) 


>  <PLP.Chemscore.Internal.Correction>  (373) 


>  <PLP.Chemscore.Metal>  (373) 


>  <PLP.Fitness>  (373) 


>  <PLP.PLP>  (373) 


>  <PLP.ligand.clash>  (373) 


>  <PLP.ligand.torsion>  (373) 


>  <PLP.part.buried>  (373) 


>  <PLP.part.hbond>  (373) 


>  <PLP.part.metal>  (373) 


>  <PLP.part.nonpolar>  (373) 


>  <PLP.part.repulsive>  (373) 


>  <RMSD>  (373) 
0.30972197429

>  <Torsion>  (373) 
172.929186758

>  <TorsionO>  (373) 
24.4968065243

>  <TorsionR>  (373) 
162.574006718

>  <Version>  (373) 


>  <product>  (373) 
49|Compound_23|Compounds_3D_F|sdf|9|dock4|1

>  <rmsd>  (373) 
-1

$$$$
110|565385_49|Aromatic_carboxylic_acids_F|sdf|29|dock1|1
     RDKit          3D

 13 13  0  0  0  0  0  0  0  0999 V2000
  -10.1118  -17.9021   11.6320 C   0  0  0  0  0  0  0  0  0  0  0  0
   -9.7537  -16.5043   11.6546 N   0  0  0  0  0  0  0  0  0  0  0  0
   -8.4330  -16.1187   11.7930 C   0  0  0  0  0  0  0  0  0  0  0  0
   -7.5159  -16.9298   11.9008 O   0  0  0  0  0  0  0  0  0  0  0  0
   -8.1234  -14.6552   11.8105 C   0  0  0  0  0  0  0  0  0  0  0  0
   -9.0636  -13.6551   11.5375 C   0  0  0  0  0  0  0  0  0  0  0  0
   -8.6966  -12.3009   11.5726 C   0  0  0  0  0  0  0  0  0  0  0  0
   -7.3879  -11.9195   11.8809 C   0  0  0  0  0  0  0  0  0  0  0  0
   -6.4486  -12.9235   12.1551 C   0  0  0  0  0  0  0  0  0  0  0  0
   -6.8098  -14.2750   12.1207 C   0  0  0  0  0  0  0  0  0  0  0  0
   -4.6444  -12.5025   12.5849 Br  0  0  0  0  0  0  0  0  0  0  0  0
   -6.9476  -10.6242   11.9372 O   0  0  0  0  0  0  0  0  0  0  0  0
   -7.9020   -9.5910   11.7256 C   0  0  0  0  0  0  0  0  0  0  0  0
  1  2  1  0
  2  3  1  0
  3  4  2  0
  3  5  1  0
  5  6  2  0
  5 10  1  0
  6  7  1  0
  7  8  2  0
  8  9  1  0
  8 12  1  0
  9 10  2  0
  9 11  1  0
 12 13  1  0
M  END
>  <Gold.Gold.Protein.RotatedWaterAtoms>  (374) 


>  <Gold.Id.Protein>  (374) 


>  <Gold.PLP.Chemscore.CHOScore>  (374) 
0.0000

>  <Gold.PLP.Chemscore.Hbond>  (374) 
1.0000

>  <Gold.PLP.Chemscore.Internal.Correction>  (374) 
0.0000

>  <Gold.PLP.Chemscore.Metal>  (374) 
0.0000

>  <Gold.PLP.Fitness>  (374) 
43.9775

>  <Gold.PLP.PLP>  (374) 
-41.0517

>  <Gold.PLP.ligand.clash>  (374) 
0.0000

>  <Gold.PLP.ligand.torsion>  (374) 
0.0371

>  <Gold.PLP.part.buried>  (374) 
-3.7367

>  <Gold.PLP.part.hbond>  (374) 
-1.0000

>  <Gold.PLP.part.metal>  (374) 
0.0000

>  <Gold.PLP.part.nonpolar>  (374) 
-36.7483

>  <Gold.PLP.part.repulsive>  (374) 
0.4054

>  <Gold.Protein.RotatedAtoms>  (374) 


>  <Gold.Protein.RotatedTorsions>  (374) 


>  <Gold.Protein.RotatedWaterAtoms>  (374) 


>  <Gold.Version>  (374) 
5.3.0

>  <PLP.Chemscore.CHOScore>  (374) 


>  <PLP.Chemscore.Hbond>  (374) 


>  <PLP.Chemscore.Internal.Correction>  (374) 


>  <PLP.Chemscore.Metal>  (374) 


>  <PLP.Fitness>  (374) 


>  <PLP.PLP>  (374) 


>  <PLP.ligand.clash>  (374) 


>  <PLP.ligand.torsion>  (374) 


>  <PLP.part.buried>  (374) 


>  <PLP.part.hbond>  (374) 


>  <PLP.part.metal>  (374) 


>  <PLP.part.nonpolar>  (374) 


>  <PLP.part.repulsive>  (374) 


>  <RMSD>  (374) 
0.319376411377

>  <Torsion>  (374) 
169.460450784

>  <TorsionO>  (374) 
9.7963905484

>  <TorsionR>  (374) 
179.256841332

>  <Version>  (374) 


>  <product>  (374) 
49|Compound_23|Compounds_3D_F|sdf|9|dock4|1

>  <rmsd>  (374) 
-1

$$$$
128|137677_56|Aromatic_carboxylic_acids_F|sdf|33|dock1|1
     RDKit          3D

 11 11  0  0  0  0  0  0  0  0999 V2000
   -8.6116  -16.1544   11.8887 C   0  0  0  0  0  0  0  0  0  0  0  0
   -7.9978  -14.8484   11.9215 N   0  0  0  0  0  0  0  0  0  0  0  0
   -8.7778  -13.7008   11.8756 C   0  0  0  0  0  0  0  0  0  0  0  0
  -10.0002  -13.7896   11.8139 O   0  0  0  0  0  0  0  0  0  0  0  0
   -8.0808  -12.3609   11.9017 C   0  0  0  0  0  0  0  0  0  0  0  0
   -8.7916  -11.1851   11.5813 C   0  0  0  0  0  0  0  0  0  0  0  0
   -8.1781   -9.9267   11.5989 C   0  0  0  0  0  0  0  0  0  0  0  0
   -6.8391   -9.8089   11.9369 C   0  0  0  0  0  0  0  0  0  0  0  0
   -6.1124  -10.9502   12.2575 C   0  0  0  0  0  0  0  0  0  0  0  0
   -6.7171  -12.2196   12.2428 C   0  0  0  0  0  0  0  0  0  0  0  0
   -5.5419  -13.6455   12.7121 Br  0  0  0  0  0  0  0  0  0  0  0  0
  1  2  1  0
  2  3  1  0
  3  4  2  0
  3  5  1  0
  5  6  2  0
  5 10  1  0
  6  7  1  0
  7  8  2  0
  8  9  1  0
  9 10  2  0
 10 11  1  0
M  END
>  <Gold.Gold.Protein.RotatedWaterAtoms>  (375) 


>  <Gold.Id.Protein>  (375) 


>  <Gold.PLP.Chemscore.CHOScore>  (375) 
0.0000

>  <Gold.PLP.Chemscore.Hbond>  (375) 
1.0000

>  <Gold.PLP.Chemscore.Internal.Correction>  (375) 
0.0000

>  <Gold.PLP.Chemscore.Metal>  (375) 
0.0000

>  <Gold.PLP.Fitness>  (375) 
45.2899

>  <Gold.PLP.PLP>  (375) 
-42.4444

>  <Gold.PLP.ligand.clash>  (375) 
0.0000

>  <Gold.PLP.ligand.torsion>  (375) 
0.0772

>  <Gold.PLP.part.buried>  (375) 
-6.4690

>  <Gold.PLP.part.hbond>  (375) 
-0.6863

>  <Gold.PLP.part.metal>  (375) 
0.0000

>  <Gold.PLP.part.nonpolar>  (375) 
-34.8280

>  <Gold.PLP.part.repulsive>  (375) 
0.1963

>  <Gold.Protein.RotatedAtoms>  (375) 


>  <Gold.Protein.RotatedTorsions>  (375) 


>  <Gold.Protein.RotatedWaterAtoms>  (375) 


>  <Gold.Version>  (375) 
5.3.0

>  <PLP.Chemscore.CHOScore>  (375) 


>  <PLP.Chemscore.Hbond>  (375) 


>  <PLP.Chemscore.Internal.Correction>  (375) 


>  <PLP.Chemscore.Metal>  (375) 


>  <PLP.Fitness>  (375) 


>  <PLP.PLP>  (375) 


>  <PLP.ligand.clash>  (375) 


>  <PLP.ligand.torsion>  (375) 


>  <PLP.part.buried>  (375) 


>  <PLP.part.hbond>  (375) 


>  <PLP.part.metal>  (375) 


>  <PLP.part.nonpolar>  (375) 


>  <PLP.part.repulsive>  (375) 


>  <RMSD>  (375) 
0.428070490903

>  <Torsion>  (375) 
152.444048788

>  <TorsionO>  (375) 
39.0580871276

>  <TorsionR>  (375) 
168.497864085

>  <Version>  (375) 


>  <product>  (375) 
49|Compound_23|Compounds_3D_F|sdf|9|dock4|1

>  <rmsd>  (375) 
-1

$$$$
974|750794_1404|Aromatic_primary_amines_F|sdf|194|dock3|1
     RDKit          3D

 14 14  0  0  0  0  0  0  0  0999 V2000
  -13.6355  -18.1936    9.4145 C   0  0  0  0  0  0  0  0  0  0  0  0
  -13.2544  -19.4497   10.1732 C   0  0  0  0  0  0  0  0  0  0  0  0
  -11.8731  -19.3506   10.5383 O   0  0  0  0  0  0  0  0  0  0  0  0
  -11.6148  -18.5085   11.5823 C   0  0  0  0  0  0  0  0  0  0  0  0
  -12.3947  -18.2810   12.5004 O   0  0  0  0  0  0  0  0  0  0  0  0
  -10.3031  -17.8985   11.4902 C   0  0  0  0  0  0  0  0  0  0  0  0
   -9.1673  -18.4974   10.9931 C   0  0  0  0  0  0  0  0  0  0  0  0
   -8.1448  -17.6055   11.0758 O   0  0  0  0  0  0  0  0  0  0  0  0
   -8.7110  -16.4917   11.6237 C   0  0  0  0  0  0  0  0  0  0  0  0
   -9.9933  -16.6110   11.8915 N   0  0  0  0  0  0  0  0  0  0  0  0
   -7.9611  -15.3718   11.8549 N   0  0  0  0  0  0  0  0  0  0  0  0
   -8.5046  -14.1249   12.0676 C   0  0  0  0  0  0  0  0  0  0  0  0
   -9.6950  -13.8313   12.1035 O   0  0  0  0  0  0  0  0  0  0  0  0
   -7.4448  -13.0785   12.3021 C   0  0  0  0  0  0  0  0  0  0  0  0
  1  2  1  0
  2  3  1  0
  3  4  1  0
  4  5  2  0
  4  6  1  0
  6  7  2  0
  6 10  1  0
  7  8  1  0
  8  9  1  0
  9 10  2  0
  9 11  1  0
 11 12  1  0
 12 13  2  0
 12 14  1  0
M  END
>  <Gold.Gold.Protein.RotatedWaterAtoms>  (376) 


>  <Gold.Id.Protein>  (376) 


>  <Gold.PLP.Chemscore.CHOScore>  (376) 
0.0000

>  <Gold.PLP.Chemscore.Hbond>  (376) 
2.0000

>  <Gold.PLP.Chemscore.Internal.Correction>  (376) 
0.0053

>  <Gold.PLP.Chemscore.Metal>  (376) 
0.0000

>  <Gold.PLP.Fitness>  (376) 
36.8047

>  <Gold.PLP.PLP>  (376) 
-32.7996

>  <Gold.PLP.ligand.clash>  (376) 
0.0000

>  <Gold.PLP.ligand.torsion>  (376) 
1.0001

>  <Gold.PLP.part.buried>  (376) 
-6.5206

>  <Gold.PLP.part.hbond>  (376) 
-2.9156

>  <Gold.PLP.part.metal>  (376) 
0.0000

>  <Gold.PLP.part.nonpolar>  (376) 
-23.4080

>  <Gold.PLP.part.repulsive>  (376) 
0.3100

>  <Gold.Protein.RotatedAtoms>  (376) 


>  <Gold.Protein.RotatedTorsions>  (376) 


>  <Gold.Protein.RotatedWaterAtoms>  (376) 


>  <Gold.Version>  (376) 
5.3.0

>  <PLP.Chemscore.CHOScore>  (376) 


>  <PLP.Chemscore.Hbond>  (376) 


>  <PLP.Chemscore.Internal.Correction>  (376) 


>  <PLP.Chemscore.Metal>  (376) 


>  <PLP.Fitness>  (376) 


>  <PLP.PLP>  (376) 


>  <PLP.ligand.clash>  (376) 


>  <PLP.ligand.torsion>  (376) 


>  <PLP.part.buried>  (376) 


>  <PLP.part.hbond>  (376) 


>  <PLP.part.metal>  (376) 


>  <PLP.part.nonpolar>  (376) 


>  <PLP.part.repulsive>  (376) 


>  <RMSD>  (376) 
0.499949349045

>  <Torsion>  (376) 
159.973716791

>  <TorsionO>  (376) 
19.1052109979

>  <TorsionR>  (376) 
179.078927789

>  <Version>  (376) 


>  <product>  (376) 
49|Compound_23|Compounds_3D_F|sdf|9|dock4|1

>  <rmsd>  (376) 
-1

$$$$
1884|M3006_1781|Aromatic_primary_amines_F|sdf|361|dock3|1
     RDKit          3D

 31 34  0  0  0  0  0  0  0  0999 V2000
  -14.4210  -19.8971    8.7934 C   0  0  0  0  0  0  0  0  0  0  0  0
  -13.9762  -19.4927   10.1894 C   0  0  0  0  0  0  0  0  0  0  0  0
  -14.1356  -20.6409   11.1817 C   0  0  0  0  0  0  0  0  0  0  0  0
  -13.5197  -20.3070   12.5189 C   0  0  0  0  0  0  0  0  0  0  0  0
  -12.9307  -19.2724   12.7954 O   0  0  0  0  0  0  0  0  0  0  0  0
  -13.7110  -21.3451   13.3845 O   0  0  0  0  0  0  0  0  0  0  0  0
  -12.9425  -21.2698   14.5900 C   0  0  0  0  0  0  0  0  0  0  0  0
  -12.8849  -22.6189   15.2889 C   0  0  0  0  0  0  0  0  0  0  0  0
  -11.6552  -22.4172   16.1494 C   0  0  0  0  0  0  0  0  0  0  0  0
  -11.2420  -23.7410   16.7624 C   0  0  0  0  0  0  0  0  0  0  0  0
  -12.3024  -24.2223   17.5862 O   0  0  0  0  0  0  0  0  0  0  0  0
  -13.7888  -24.3384   16.9603 P   0  0  0  0  0  0  0  0  0  0  0  0
  -14.8775  -24.6795   17.9243 O   0  0  0  0  0  0  0  0  0  0  0  0
  -13.9839  -22.9641   16.1174 O   0  0  0  0  0  0  0  0  0  0  0  0
  -13.5991  -25.4435   15.8075 O   0  0  0  0  0  0  0  0  0  0  0  0
  -10.6922  -21.8161   15.2889 O   0  0  0  0  0  0  0  0  0  0  0  0
  -11.4338  -20.9664   14.3653 C   0  0  0  0  0  0  0  0  0  0  0  0
  -10.9052  -21.2017   13.0342 N   0  0  0  0  0  0  0  0  0  0  0  0
  -10.7814  -22.4114   12.4013 C   0  0  0  0  0  0  0  0  0  0  0  0
  -10.2640  -22.2918   11.1953 N   0  0  0  0  0  0  0  0  0  0  0  0
  -10.0274  -20.9476   11.0424 C   0  0  0  0  0  0  0  0  0  0  0  0
  -10.4203  -20.2487   12.1733 C   0  0  0  0  0  0  0  0  0  0  0  0
  -10.3338  -18.9216   12.3641 N   0  0  0  0  0  0  0  0  0  0  0  0
   -9.8057  -18.2730   11.3024 C   0  0  0  0  0  0  0  0  0  0  0  0
   -9.3808  -18.8370   10.1545 N   0  0  0  0  0  0  0  0  0  0  0  0
   -9.4895  -20.1691   10.0244 C   0  0  0  0  0  0  0  0  0  0  0  0
   -9.0330  -20.6622    8.8349 O   0  0  0  0  0  0  0  0  0  0  0  0
   -9.7222  -16.8901   11.4793 N   0  0  0  0  0  0  0  0  0  0  0  0
   -8.5796  -16.1798   11.7761 C   0  0  0  0  0  0  0  0  0  0  0  0
   -7.4445  -16.6221   11.9131 O   0  0  0  0  0  0  0  0  0  0  0  0
   -8.8524  -14.7024   11.8973 C   0  0  0  0  0  0  0  0  0  0  0  0
  1  2  1  0
  2  3  1  0
  3  4  1  0
  4  5  2  0
  4  6  1  0
  6  7  1  0
  7  8  1  0
  7 17  1  0
  8  9  1  0
  8 14  1  0
  9 10  1  0
  9 16  1  0
 10 11  1  0
 11 12  1  0
 12 13  2  0
 12 14  1  0
 12 15  1  0
 16 17  1  0
 17 18  1  0
 18 19  1  0
 18 22  1  0
 19 20  2  0
 20 21  1  0
 21 22  2  0
 21 26  1  0
 22 23  1  0
 23 24  2  0
 24 25  1  0
 24 28  1  0
 25 26  2  0
 26 27  1  0
 28 29  1  0
 29 30  2  0
 29 31  1  0
M  END
>  <Gold.Gold.Protein.RotatedWaterAtoms>  (377) 


>  <Gold.Id.Protein>  (377) 


>  <Gold.PLP.Chemscore.CHOScore>  (377) 
0.0000

>  <Gold.PLP.Chemscore.Hbond>  (377) 
1.2080

>  <Gold.PLP.Chemscore.Internal.Correction>  (377) 
0.1232

>  <Gold.PLP.Chemscore.Metal>  (377) 
0.0000

>  <Gold.PLP.Fitness>  (377) 
47.7145

>  <Gold.PLP.PLP>  (377) 
-46.0218

>  <Gold.PLP.ligand.clash>  (377) 
0.0000

>  <Gold.PLP.ligand.torsion>  (377) 
1.0272

>  <Gold.PLP.part.buried>  (377) 
-2.2958

>  <Gold.PLP.part.hbond>  (377) 
-4.0214

>  <Gold.PLP.part.metal>  (377) 
0.0000

>  <Gold.PLP.part.nonpolar>  (377) 
-41.4699

>  <Gold.PLP.part.repulsive>  (377) 
0.9524

>  <Gold.Protein.RotatedAtoms>  (377) 


>  <Gold.Protein.RotatedTorsions>  (377) 


>  <Gold.Protein.RotatedWaterAtoms>  (377) 


>  <Gold.Version>  (377) 
5.3.0

>  <PLP.Chemscore.CHOScore>  (377) 


>  <PLP.Chemscore.Hbond>  (377) 


>  <PLP.Chemscore.Internal.Correction>  (377) 


>  <PLP.Chemscore.Metal>  (377) 


>  <PLP.Fitness>  (377) 


>  <PLP.PLP>  (377) 


>  <PLP.ligand.clash>  (377) 


>  <PLP.ligand.torsion>  (377) 


>  <PLP.part.buried>  (377) 


>  <PLP.part.hbond>  (377) 


>  <PLP.part.metal>  (377) 


>  <PLP.part.nonpolar>  (377) 


>  <PLP.part.repulsive>  (377) 


>  <RMSD>  (377) 
0.291955871297

>  <Torsion>  (377) 
171.923704933

>  <TorsionO>  (377) 
6.03609353985

>  <TorsionR>  (377) 
177.959798473

>  <Version>  (377) 


>  <product>  (377) 
49|Compound_23|Compounds_3D_F|sdf|9|dock4|1

>  <rmsd>  (377) 
-1

$$$$
193|32168_281|Aromatic_primary_amines_F|sdf|39|dock6|1
     RDKit          3D

 23 25  0  0  0  0  0  0  0  0999 V2000
   -7.8439  -12.1461   11.8919 C   0  0  0  0  0  0  0  0  0  0  0  0
   -8.5691  -13.4472   11.6781 C   0  0  0  0  0  0  0  0  0  0  0  0
   -9.7886  -13.4981   11.5208 O   0  0  0  0  0  0  0  0  0  0  0  0
   -7.7264  -14.5390   11.7020 N   0  0  0  0  0  0  0  0  0  0  0  0
   -8.1889  -15.8197   11.5323 C   0  0  0  0  0  0  0  0  0  0  0  0
   -9.4747  -16.2039   11.8163 N   0  0  0  0  0  0  0  0  0  0  0  0
   -9.5964  -17.5375   11.5379 C   0  0  0  0  0  0  0  0  0  0  0  0
  -10.6643  -18.4283   11.6415 C   0  0  0  0  0  0  0  0  0  0  0  0
  -10.4051  -19.7586   11.2778 C   0  0  0  0  0  0  0  0  0  0  0  0
   -9.1530  -20.1507   10.7795 C   0  0  0  0  0  0  0  0  0  0  0  0
   -8.1017  -19.2294   10.6839 C   0  0  0  0  0  0  0  0  0  0  0  0
   -8.3349  -17.9032   11.0783 C   0  0  0  0  0  0  0  0  0  0  0  0
   -7.4773  -16.8281   11.0838 N   0  0  0  0  0  0  0  0  0  0  0  0
   -8.8530  -21.7658   10.2429 Cl  0  0  0  0  0  0  0  0  0  0  0  0
  -11.4669  -20.6323   11.3734 O   0  0  0  0  0  0  0  0  0  0  0  0
  -12.5262  -20.4408   10.5053 C   0  0  0  0  0  0  0  0  0  0  0  0
  -13.3188  -19.2846   10.5304 C   0  0  0  0  0  0  0  0  0  0  0  0
  -14.3665  -19.1344    9.6224 C   0  0  0  0  0  0  0  0  0  0  0  0
  -14.6219  -20.1279    8.6796 C   0  0  0  0  0  0  0  0  0  0  0  0
  -13.8238  -21.2756    8.6345 C   0  0  0  0  0  0  0  0  0  0  0  0
  -12.7674  -21.4342    9.5416 C   0  0  0  0  0  0  0  0  0  0  0  0
  -11.7588  -22.8458    9.4996 Cl  0  0  0  0  0  0  0  0  0  0  0  0
  -14.1988  -22.4584    7.4296 Cl  0  0  0  0  0  0  0  0  0  0  0  0
  1  2  1  0
  2  3  2  0
  2  4  1  0
  4  5  1  0
  5  6  1  0
  5 13  2  0
  6  7  1  0
  7  8  2  0
  7 12  1  0
  8  9  1  0
  9 10  2  0
  9 15  1  0
 10 11  1  0
 10 14  1  0
 11 12  2  0
 12 13  1  0
 15 16  1  0
 16 17  2  0
 16 21  1  0
 17 18  1  0
 18 19  2  0
 19 20  1  0
 20 21  2  0
 20 23  1  0
 21 22  1  0
M  END
>  <Gold.Gold.Protein.RotatedWaterAtoms>  (378) 


>  <Gold.Id.Protein>  (378) 


>  <Gold.PLP.Chemscore.CHOScore>  (378) 
0.0000

>  <Gold.PLP.Chemscore.Hbond>  (378) 
1.0000

>  <Gold.PLP.Chemscore.Internal.Correction>  (378) 
0.0086

>  <Gold.PLP.Chemscore.Metal>  (378) 
0.0000

>  <Gold.PLP.Fitness>  (378) 
50.7139

>  <Gold.PLP.PLP>  (378) 
-48.1706

>  <Gold.PLP.ligand.clash>  (378) 
0.0000

>  <Gold.PLP.ligand.torsion>  (378) 
0.2327

>  <Gold.PLP.part.buried>  (378) 
-6.5205

>  <Gold.PLP.part.hbond>  (378) 
-2.0000

>  <Gold.PLP.part.metal>  (378) 
0.0000

>  <Gold.PLP.part.nonpolar>  (378) 
-39.3857

>  <Gold.PLP.part.repulsive>  (378) 
0.3298

>  <Gold.Protein.RotatedAtoms>  (378) 


>  <Gold.Protein.RotatedTorsions>  (378) 


>  <Gold.Protein.RotatedWaterAtoms>  (378) 


>  <Gold.Version>  (378) 
5.3.0

>  <PLP.Chemscore.CHOScore>  (378) 


>  <PLP.Chemscore.Hbond>  (378) 


>  <PLP.Chemscore.Internal.Correction>  (378) 


>  <PLP.Chemscore.Metal>  (378) 


>  <PLP.Fitness>  (378) 


>  <PLP.PLP>  (378) 


>  <PLP.ligand.clash>  (378) 


>  <PLP.ligand.torsion>  (378) 


>  <PLP.part.buried>  (378) 


>  <PLP.part.hbond>  (378) 


>  <PLP.part.metal>  (378) 


>  <PLP.part.nonpolar>  (378) 


>  <PLP.part.repulsive>  (378) 


>  <RMSD>  (378) 
0.439733510035

>  <Torsion>  (378) 
177.672185574

>  <TorsionO>  (378) 
4.31728583372

>  <TorsionR>  (378) 
173.35489974

>  <Version>  (378) 


>  <product>  (378) 
49|Compound_23|Compounds_3D_F|sdf|9|dock4|1

>  <rmsd>  (378) 
-1

$$$$
96|Compound_34|Compounds_3D_F|sdf|15|dock7|1
     RDKit          3D

 10  9  0  0  0  0  0  0  0  0999 V2000
   -4.5858  -12.2491   13.3485 O   0  0  0  0  0  0  0  0  0  0  0  0
   -5.6250  -12.4149   12.5166 C   0  0  0  0  0  0  0  0  0  0  0  0
   -6.0801  -11.4669   11.9202 O   0  0  0  0  0  0  0  0  0  0  0  0
   -6.2266  -13.7835   12.3253 C   0  0  0  0  0  0  0  0  0  0  0  0
   -5.1956  -14.7091   11.8491 N   0  0  0  0  0  0  0  0  0  0  0  0
   -5.2036  -15.9943   12.2556 C   0  0  0  0  0  0  0  0  0  0  0  0
   -6.0635  -16.3845   13.0155 O   0  0  0  0  0  0  0  0  0  0  0  0
   -4.0984  -16.9851   11.7454 B   0  0  0  0  0  0  0  0  0  0  0  0
   -7.3561  -13.7051   11.2958 C   0  0  0  0  0  0  0  0  0  0  0  0
   -8.3902  -12.8502   11.7875 O   0  0  0  0  0  0  0  0  0  0  0  0
  1  2  1  0
  2  3  2  0
  2  4  1  0
  4  5  1  0
  4  9  1  0
  5  6  1  0
  6  7  2  0
  6  8  1  0
  9 10  1  0
M  END
>  <Gold.Gold.Protein.RotatedWaterAtoms>  (379) 


>  <Gold.Id.Protein>  (379) 


>  <Gold.PLP.Chemscore.CHOScore>  (379) 
0.0000

>  <Gold.PLP.Chemscore.Hbond>  (379) 
1.9913

>  <Gold.PLP.Chemscore.Internal.Correction>  (379) 
0.0005

>  <Gold.PLP.Chemscore.Metal>  (379) 
0.0000

>  <Gold.PLP.Fitness>  (379) 
35.2318

>  <Gold.PLP.PLP>  (379) 
-29.9681

>  <Gold.PLP.ligand.clash>  (379) 
0.0000

>  <Gold.PLP.ligand.torsion>  (379) 
0.3553

>  <Gold.PLP.part.buried>  (379) 
-7.4585

>  <Gold.PLP.part.hbond>  (379) 
-4.8060

>  <Gold.PLP.part.metal>  (379) 
0.0000

>  <Gold.PLP.part.nonpolar>  (379) 
-17.3898

>  <Gold.PLP.part.repulsive>  (379) 
0.4231

>  <Gold.Protein.RotatedAtoms>  (379) 


>  <Gold.Protein.RotatedTorsions>  (379) 


>  <Gold.Protein.RotatedWaterAtoms>  (379) 


>  <Gold.Version>  (379) 
5.3.0

>  <PLP.Chemscore.CHOScore>  (379) 


>  <PLP.Chemscore.Hbond>  (379) 


>  <PLP.Chemscore.Internal.Correction>  (379) 


>  <PLP.Chemscore.Metal>  (379) 


>  <PLP.Fitness>  (379) 


>  <PLP.PLP>  (379) 


>  <PLP.ligand.clash>  (379) 


>  <PLP.ligand.torsion>  (379) 


>  <PLP.part.buried>  (379) 


>  <PLP.part.hbond>  (379) 


>  <PLP.part.metal>  (379) 


>  <PLP.part.nonpolar>  (379) 


>  <PLP.part.repulsive>  (379) 


>  <Version>  (379) 


$$$$
94|664022_40|Aromatic_carboxylic_acids_F|sdf|24|dock1|1
     RDKit          3D

 12 12  0  0  0  0  0  0  0  0999 V2000
   -8.2596  -17.1212   11.4595 C   0  0  0  0  0  0  0  0  0  0  0  0
   -7.6366  -15.8367   11.6688 N   0  0  0  0  0  0  0  0  0  0  0  0
   -8.3409  -14.6553   11.5719 C   0  0  0  0  0  0  0  0  0  0  0  0
   -9.5296  -14.5547   11.2978 O   0  0  0  0  0  0  0  0  0  0  0  0
   -7.5420  -13.4431   11.8503 C   0  0  0  0  0  0  0  0  0  0  0  0
   -8.1627  -12.1983   11.6738 C   0  0  0  0  0  0  0  0  0  0  0  0
   -7.4390  -11.0301   11.9055 C   0  0  0  0  0  0  0  0  0  0  0  0
   -6.1069  -11.0910   12.3103 C   0  0  0  0  0  0  0  0  0  0  0  0
   -5.4897  -12.3324   12.4853 C   0  0  0  0  0  0  0  0  0  0  0  0
   -6.2035  -13.5136   12.2549 C   0  0  0  0  0  0  0  0  0  0  0  0
   -5.3062  -15.1564   12.5638 Br  0  0  0  0  0  0  0  0  0  0  0  0
   -8.1960   -9.5005   11.6887 Cl  0  0  0  0  0  0  0  0  0  0  0  0
  1  2  1  0
  2  3  1  0
  3  4  2  0
  3  5  1  0
  5  6  2  0
  5 10  1  0
  6  7  1  0
  7  8  2  0
  7 12  1  0
  8  9  1  0
  9 10  2  0
 10 11  1  0
M  END
>  <Gold.Gold.Protein.RotatedWaterAtoms>  (380) 


>  <Gold.Id.Protein>  (380) 


>  <Gold.PLP.Chemscore.CHOScore>  (380) 
0.0000

>  <Gold.PLP.Chemscore.Hbond>  (380) 
0.4160

>  <Gold.PLP.Chemscore.Internal.Correction>  (380) 
0.0004

>  <Gold.PLP.Chemscore.Metal>  (380) 
0.0000

>  <Gold.PLP.Fitness>  (380) 
48.9046

>  <Gold.PLP.PLP>  (380) 
-47.6744

>  <Gold.PLP.ligand.clash>  (380) 
0.0000

>  <Gold.PLP.ligand.torsion>  (380) 
0.0091

>  <Gold.PLP.part.buried>  (380) 
-7.3578

>  <Gold.PLP.part.hbond>  (380) 
-0.5127

>  <Gold.PLP.part.metal>  (380) 
0.0000

>  <Gold.PLP.part.nonpolar>  (380) 
-40.3098

>  <Gold.PLP.part.repulsive>  (380) 
0.1684

>  <Gold.Protein.RotatedAtoms>  (380) 


>  <Gold.Protein.RotatedTorsions>  (380) 


>  <Gold.Protein.RotatedWaterAtoms>  (380) 


>  <Gold.Version>  (380) 
5.3.0

>  <PLP.Chemscore.CHOScore>  (380) 


>  <PLP.Chemscore.Hbond>  (380) 


>  <PLP.Chemscore.Internal.Correction>  (380) 


>  <PLP.Chemscore.Metal>  (380) 


>  <PLP.Fitness>  (380) 


>  <PLP.PLP>  (380) 


>  <PLP.ligand.clash>  (380) 


>  <PLP.ligand.torsion>  (380) 


>  <PLP.part.buried>  (380) 


>  <PLP.part.hbond>  (380) 


>  <PLP.part.metal>  (380) 


>  <PLP.part.nonpolar>  (380) 


>  <PLP.part.repulsive>  (380) 


>  <RMSD>  (380) 
0.30972197429

>  <Torsion>  (380) 
172.929186758

>  <TorsionO>  (380) 
24.4968065243

>  <TorsionR>  (380) 
162.574006718

>  <Version>  (380) 


>  <product>  (380) 
96|Compound_34|Compounds_3D_F|sdf|15|dock7|1

>  <rmsd>  (380) 
-1

$$$$
110|565385_49|Aromatic_carboxylic_acids_F|sdf|29|dock1|1
     RDKit          3D

 13 13  0  0  0  0  0  0  0  0999 V2000
  -10.1118  -17.9021   11.6320 C   0  0  0  0  0  0  0  0  0  0  0  0
   -9.7537  -16.5043   11.6546 N   0  0  0  0  0  0  0  0  0  0  0  0
   -8.4330  -16.1187   11.7930 C   0  0  0  0  0  0  0  0  0  0  0  0
   -7.5159  -16.9298   11.9008 O   0  0  0  0  0  0  0  0  0  0  0  0
   -8.1234  -14.6552   11.8105 C   0  0  0  0  0  0  0  0  0  0  0  0
   -9.0636  -13.6551   11.5375 C   0  0  0  0  0  0  0  0  0  0  0  0
   -8.6966  -12.3009   11.5726 C   0  0  0  0  0  0  0  0  0  0  0  0
   -7.3879  -11.9195   11.8809 C   0  0  0  0  0  0  0  0  0  0  0  0
   -6.4486  -12.9235   12.1551 C   0  0  0  0  0  0  0  0  0  0  0  0
   -6.8098  -14.2750   12.1207 C   0  0  0  0  0  0  0  0  0  0  0  0
   -4.6444  -12.5025   12.5849 Br  0  0  0  0  0  0  0  0  0  0  0  0
   -6.9476  -10.6242   11.9372 O   0  0  0  0  0  0  0  0  0  0  0  0
   -7.9020   -9.5910   11.7256 C   0  0  0  0  0  0  0  0  0  0  0  0
  1  2  1  0
  2  3  1  0
  3  4  2  0
  3  5  1  0
  5  6  2  0
  5 10  1  0
  6  7  1  0
  7  8  2  0
  8  9  1  0
  8 12  1  0
  9 10  2  0
  9 11  1  0
 12 13  1  0
M  END
>  <Gold.Gold.Protein.RotatedWaterAtoms>  (381) 


>  <Gold.Id.Protein>  (381) 


>  <Gold.PLP.Chemscore.CHOScore>  (381) 
0.0000

>  <Gold.PLP.Chemscore.Hbond>  (381) 
1.0000

>  <Gold.PLP.Chemscore.Internal.Correction>  (381) 
0.0000

>  <Gold.PLP.Chemscore.Metal>  (381) 
0.0000

>  <Gold.PLP.Fitness>  (381) 
43.9775

>  <Gold.PLP.PLP>  (381) 
-41.0517

>  <Gold.PLP.ligand.clash>  (381) 
0.0000

>  <Gold.PLP.ligand.torsion>  (381) 
0.0371

>  <Gold.PLP.part.buried>  (381) 
-3.7367

>  <Gold.PLP.part.hbond>  (381) 
-1.0000

>  <Gold.PLP.part.metal>  (381) 
0.0000

>  <Gold.PLP.part.nonpolar>  (381) 
-36.7483

>  <Gold.PLP.part.repulsive>  (381) 
0.4054

>  <Gold.Protein.RotatedAtoms>  (381) 


>  <Gold.Protein.RotatedTorsions>  (381) 


>  <Gold.Protein.RotatedWaterAtoms>  (381) 


>  <Gold.Version>  (381) 
5.3.0

>  <PLP.Chemscore.CHOScore>  (381) 


>  <PLP.Chemscore.Hbond>  (381) 


>  <PLP.Chemscore.Internal.Correction>  (381) 


>  <PLP.Chemscore.Metal>  (381) 


>  <PLP.Fitness>  (381) 


>  <PLP.PLP>  (381) 


>  <PLP.ligand.clash>  (381) 


>  <PLP.ligand.torsion>  (381) 


>  <PLP.part.buried>  (381) 


>  <PLP.part.hbond>  (381) 


>  <PLP.part.metal>  (381) 


>  <PLP.part.nonpolar>  (381) 


>  <PLP.part.repulsive>  (381) 


>  <RMSD>  (381) 
0.319376411377

>  <Torsion>  (381) 
169.460450784

>  <TorsionO>  (381) 
9.7963905484

>  <TorsionR>  (381) 
179.256841332

>  <Version>  (381) 


>  <product>  (381) 
96|Compound_34|Compounds_3D_F|sdf|15|dock7|1

>  <rmsd>  (381) 
-1

$$$$
128|137677_56|Aromatic_carboxylic_acids_F|sdf|33|dock1|1
     RDKit          3D

 11 11  0  0  0  0  0  0  0  0999 V2000
   -8.6116  -16.1544   11.8887 C   0  0  0  0  0  0  0  0  0  0  0  0
   -7.9978  -14.8484   11.9215 N   0  0  0  0  0  0  0  0  0  0  0  0
   -8.7778  -13.7008   11.8756 C   0  0  0  0  0  0  0  0  0  0  0  0
  -10.0002  -13.7896   11.8139 O   0  0  0  0  0  0  0  0  0  0  0  0
   -8.0808  -12.3609   11.9017 C   0  0  0  0  0  0  0  0  0  0  0  0
   -8.7916  -11.1851   11.5813 C   0  0  0  0  0  0  0  0  0  0  0  0
   -8.1781   -9.9267   11.5989 C   0  0  0  0  0  0  0  0  0  0  0  0
   -6.8391   -9.8089   11.9369 C   0  0  0  0  0  0  0  0  0  0  0  0
   -6.1124  -10.9502   12.2575 C   0  0  0  0  0  0  0  0  0  0  0  0
   -6.7171  -12.2196   12.2428 C   0  0  0  0  0  0  0  0  0  0  0  0
   -5.5419  -13.6455   12.7121 Br  0  0  0  0  0  0  0  0  0  0  0  0
  1  2  1  0
  2  3  1  0
  3  4  2  0
  3  5  1  0
  5  6  2  0
  5 10  1  0
  6  7  1  0
  7  8  2  0
  8  9  1  0
  9 10  2  0
 10 11  1  0
M  END
>  <Gold.Gold.Protein.RotatedWaterAtoms>  (382) 


>  <Gold.Id.Protein>  (382) 


>  <Gold.PLP.Chemscore.CHOScore>  (382) 
0.0000

>  <Gold.PLP.Chemscore.Hbond>  (382) 
1.0000

>  <Gold.PLP.Chemscore.Internal.Correction>  (382) 
0.0000

>  <Gold.PLP.Chemscore.Metal>  (382) 
0.0000

>  <Gold.PLP.Fitness>  (382) 
45.2899

>  <Gold.PLP.PLP>  (382) 
-42.4444

>  <Gold.PLP.ligand.clash>  (382) 
0.0000

>  <Gold.PLP.ligand.torsion>  (382) 
0.0772

>  <Gold.PLP.part.buried>  (382) 
-6.4690

>  <Gold.PLP.part.hbond>  (382) 
-0.6863

>  <Gold.PLP.part.metal>  (382) 
0.0000

>  <Gold.PLP.part.nonpolar>  (382) 
-34.8280

>  <Gold.PLP.part.repulsive>  (382) 
0.1963

>  <Gold.Protein.RotatedAtoms>  (382) 


>  <Gold.Protein.RotatedTorsions>  (382) 


>  <Gold.Protein.RotatedWaterAtoms>  (382) 


>  <Gold.Version>  (382) 
5.3.0

>  <PLP.Chemscore.CHOScore>  (382) 


>  <PLP.Chemscore.Hbond>  (382) 


>  <PLP.Chemscore.Internal.Correction>  (382) 


>  <PLP.Chemscore.Metal>  (382) 


>  <PLP.Fitness>  (382) 


>  <PLP.PLP>  (382) 


>  <PLP.ligand.clash>  (382) 


>  <PLP.ligand.torsion>  (382) 


>  <PLP.part.buried>  (382) 


>  <PLP.part.hbond>  (382) 


>  <PLP.part.metal>  (382) 


>  <PLP.part.nonpolar>  (382) 


>  <PLP.part.repulsive>  (382) 


>  <RMSD>  (382) 
0.428070490903

>  <Torsion>  (382) 
152.444048788

>  <TorsionO>  (382) 
39.0580871276

>  <TorsionR>  (382) 
168.497864085

>  <Version>  (382) 


>  <product>  (382) 
96|Compound_34|Compounds_3D_F|sdf|15|dock7|1

>  <rmsd>  (382) 
-1

$$$$
974|750794_1404|Aromatic_primary_amines_F|sdf|194|dock3|1
     RDKit          3D

 14 14  0  0  0  0  0  0  0  0999 V2000
  -13.6355  -18.1936    9.4145 C   0  0  0  0  0  0  0  0  0  0  0  0
  -13.2544  -19.4497   10.1732 C   0  0  0  0  0  0  0  0  0  0  0  0
  -11.8731  -19.3506   10.5383 O   0  0  0  0  0  0  0  0  0  0  0  0
  -11.6148  -18.5085   11.5823 C   0  0  0  0  0  0  0  0  0  0  0  0
  -12.3947  -18.2810   12.5004 O   0  0  0  0  0  0  0  0  0  0  0  0
  -10.3031  -17.8985   11.4902 C   0  0  0  0  0  0  0  0  0  0  0  0
   -9.1673  -18.4974   10.9931 C   0  0  0  0  0  0  0  0  0  0  0  0
   -8.1448  -17.6055   11.0758 O   0  0  0  0  0  0  0  0  0  0  0  0
   -8.7110  -16.4917   11.6237 C   0  0  0  0  0  0  0  0  0  0  0  0
   -9.9933  -16.6110   11.8915 N   0  0  0  0  0  0  0  0  0  0  0  0
   -7.9611  -15.3718   11.8549 N   0  0  0  0  0  0  0  0  0  0  0  0
   -8.5046  -14.1249   12.0676 C   0  0  0  0  0  0  0  0  0  0  0  0
   -9.6950  -13.8313   12.1035 O   0  0  0  0  0  0  0  0  0  0  0  0
   -7.4448  -13.0785   12.3021 C   0  0  0  0  0  0  0  0  0  0  0  0
  1  2  1  0
  2  3  1  0
  3  4  1  0
  4  5  2  0
  4  6  1  0
  6  7  2  0
  6 10  1  0
  7  8  1  0
  8  9  1  0
  9 10  2  0
  9 11  1  0
 11 12  1  0
 12 13  2  0
 12 14  1  0
M  END
>  <Gold.Gold.Protein.RotatedWaterAtoms>  (383) 


>  <Gold.Id.Protein>  (383) 


>  <Gold.PLP.Chemscore.CHOScore>  (383) 
0.0000

>  <Gold.PLP.Chemscore.Hbond>  (383) 
2.0000

>  <Gold.PLP.Chemscore.Internal.Correction>  (383) 
0.0053

>  <Gold.PLP.Chemscore.Metal>  (383) 
0.0000

>  <Gold.PLP.Fitness>  (383) 
36.8047

>  <Gold.PLP.PLP>  (383) 
-32.7996

>  <Gold.PLP.ligand.clash>  (383) 
0.0000

>  <Gold.PLP.ligand.torsion>  (383) 
1.0001

>  <Gold.PLP.part.buried>  (383) 
-6.5206

>  <Gold.PLP.part.hbond>  (383) 
-2.9156

>  <Gold.PLP.part.metal>  (383) 
0.0000

>  <Gold.PLP.part.nonpolar>  (383) 
-23.4080

>  <Gold.PLP.part.repulsive>  (383) 
0.3100

>  <Gold.Protein.RotatedAtoms>  (383) 


>  <Gold.Protein.RotatedTorsions>  (383) 


>  <Gold.Protein.RotatedWaterAtoms>  (383) 


>  <Gold.Version>  (383) 
5.3.0

>  <PLP.Chemscore.CHOScore>  (383) 


>  <PLP.Chemscore.Hbond>  (383) 


>  <PLP.Chemscore.Internal.Correction>  (383) 


>  <PLP.Chemscore.Metal>  (383) 


>  <PLP.Fitness>  (383) 


>  <PLP.PLP>  (383) 


>  <PLP.ligand.clash>  (383) 


>  <PLP.ligand.torsion>  (383) 


>  <PLP.part.buried>  (383) 


>  <PLP.part.hbond>  (383) 


>  <PLP.part.metal>  (383) 


>  <PLP.part.nonpolar>  (383) 


>  <PLP.part.repulsive>  (383) 


>  <RMSD>  (383) 
0.499949349045

>  <Torsion>  (383) 
159.973716791

>  <TorsionO>  (383) 
19.1052109979

>  <TorsionR>  (383) 
179.078927789

>  <Version>  (383) 


>  <product>  (383) 
96|Compound_34|Compounds_3D_F|sdf|15|dock7|1

>  <rmsd>  (383) 
-1

$$$$
1884|M3006_1781|Aromatic_primary_amines_F|sdf|361|dock3|1
     RDKit          3D

 31 34  0  0  0  0  0  0  0  0999 V2000
  -14.4210  -19.8971    8.7934 C   0  0  0  0  0  0  0  0  0  0  0  0
  -13.9762  -19.4927   10.1894 C   0  0  0  0  0  0  0  0  0  0  0  0
  -14.1356  -20.6409   11.1817 C   0  0  0  0  0  0  0  0  0  0  0  0
  -13.5197  -20.3070   12.5189 C   0  0  0  0  0  0  0  0  0  0  0  0
  -12.9307  -19.2724   12.7954 O   0  0  0  0  0  0  0  0  0  0  0  0
  -13.7110  -21.3451   13.3845 O   0  0  0  0  0  0  0  0  0  0  0  0
  -12.9425  -21.2698   14.5900 C   0  0  0  0  0  0  0  0  0  0  0  0
  -12.8849  -22.6189   15.2889 C   0  0  0  0  0  0  0  0  0  0  0  0
  -11.6552  -22.4172   16.1494 C   0  0  0  0  0  0  0  0  0  0  0  0
  -11.2420  -23.7410   16.7624 C   0  0  0  0  0  0  0  0  0  0  0  0
  -12.3024  -24.2223   17.5862 O   0  0  0  0  0  0  0  0  0  0  0  0
  -13.7888  -24.3384   16.9603 P   0  0  0  0  0  0  0  0  0  0  0  0
  -14.8775  -24.6795   17.9243 O   0  0  0  0  0  0  0  0  0  0  0  0
  -13.9839  -22.9641   16.1174 O   0  0  0  0  0  0  0  0  0  0  0  0
  -13.5991  -25.4435   15.8075 O   0  0  0  0  0  0  0  0  0  0  0  0
  -10.6922  -21.8161   15.2889 O   0  0  0  0  0  0  0  0  0  0  0  0
  -11.4338  -20.9664   14.3653 C   0  0  0  0  0  0  0  0  0  0  0  0
  -10.9052  -21.2017   13.0342 N   0  0  0  0  0  0  0  0  0  0  0  0
  -10.7814  -22.4114   12.4013 C   0  0  0  0  0  0  0  0  0  0  0  0
  -10.2640  -22.2918   11.1953 N   0  0  0  0  0  0  0  0  0  0  0  0
  -10.0274  -20.9476   11.0424 C   0  0  0  0  0  0  0  0  0  0  0  0
  -10.4203  -20.2487   12.1733 C   0  0  0  0  0  0  0  0  0  0  0  0
  -10.3338  -18.9216   12.3641 N   0  0  0  0  0  0  0  0  0  0  0  0
   -9.8057  -18.2730   11.3024 C   0  0  0  0  0  0  0  0  0  0  0  0
   -9.3808  -18.8370   10.1545 N   0  0  0  0  0  0  0  0  0  0  0  0
   -9.4895  -20.1691   10.0244 C   0  0  0  0  0  0  0  0  0  0  0  0
   -9.0330  -20.6622    8.8349 O   0  0  0  0  0  0  0  0  0  0  0  0
   -9.7222  -16.8901   11.4793 N   0  0  0  0  0  0  0  0  0  0  0  0
   -8.5796  -16.1798   11.7761 C   0  0  0  0  0  0  0  0  0  0  0  0
   -7.4445  -16.6221   11.9131 O   0  0  0  0  0  0  0  0  0  0  0  0
   -8.8524  -14.7024   11.8973 C   0  0  0  0  0  0  0  0  0  0  0  0
  1  2  1  0
  2  3  1  0
  3  4  1  0
  4  5  2  0
  4  6  1  0
  6  7  1  0
  7  8  1  0
  7 17  1  0
  8  9  1  0
  8 14  1  0
  9 10  1  0
  9 16  1  0
 10 11  1  0
 11 12  1  0
 12 13  2  0
 12 14  1  0
 12 15  1  0
 16 17  1  0
 17 18  1  0
 18 19  1  0
 18 22  1  0
 19 20  2  0
 20 21  1  0
 21 22  2  0
 21 26  1  0
 22 23  1  0
 23 24  2  0
 24 25  1  0
 24 28  1  0
 25 26  2  0
 26 27  1  0
 28 29  1  0
 29 30  2  0
 29 31  1  0
M  END
>  <Gold.Gold.Protein.RotatedWaterAtoms>  (384) 


>  <Gold.Id.Protein>  (384) 


>  <Gold.PLP.Chemscore.CHOScore>  (384) 
0.0000

>  <Gold.PLP.Chemscore.Hbond>  (384) 
1.2080

>  <Gold.PLP.Chemscore.Internal.Correction>  (384) 
0.1232

>  <Gold.PLP.Chemscore.Metal>  (384) 
0.0000

>  <Gold.PLP.Fitness>  (384) 
47.7145

>  <Gold.PLP.PLP>  (384) 
-46.0218

>  <Gold.PLP.ligand.clash>  (384) 
0.0000

>  <Gold.PLP.ligand.torsion>  (384) 
1.0272

>  <Gold.PLP.part.buried>  (384) 
-2.2958

>  <Gold.PLP.part.hbond>  (384) 
-4.0214

>  <Gold.PLP.part.metal>  (384) 
0.0000

>  <Gold.PLP.part.nonpolar>  (384) 
-41.4699

>  <Gold.PLP.part.repulsive>  (384) 
0.9524

>  <Gold.Protein.RotatedAtoms>  (384) 


>  <Gold.Protein.RotatedTorsions>  (384) 


>  <Gold.Protein.RotatedWaterAtoms>  (384) 


>  <Gold.Version>  (384) 
5.3.0

>  <PLP.Chemscore.CHOScore>  (384) 


>  <PLP.Chemscore.Hbond>  (384) 


>  <PLP.Chemscore.Internal.Correction>  (384) 


>  <PLP.Chemscore.Metal>  (384) 


>  <PLP.Fitness>  (384) 


>  <PLP.PLP>  (384) 


>  <PLP.ligand.clash>  (384) 


>  <PLP.ligand.torsion>  (384) 


>  <PLP.part.buried>  (384) 


>  <PLP.part.hbond>  (384) 


>  <PLP.part.metal>  (384) 


>  <PLP.part.nonpolar>  (384) 


>  <PLP.part.repulsive>  (384) 


>  <RMSD>  (384) 
0.291955871297

>  <Torsion>  (384) 
171.923704933

>  <TorsionO>  (384) 
6.03609353985

>  <TorsionR>  (384) 
177.959798473

>  <Version>  (384) 


>  <product>  (384) 
96|Compound_34|Compounds_3D_F|sdf|15|dock7|1

>  <rmsd>  (384) 
-1

$$$$
193|32168_281|Aromatic_primary_amines_F|sdf|39|dock6|1
     RDKit          3D

 23 25  0  0  0  0  0  0  0  0999 V2000
   -7.8439  -12.1461   11.8919 C   0  0  0  0  0  0  0  0  0  0  0  0
   -8.5691  -13.4472   11.6781 C   0  0  0  0  0  0  0  0  0  0  0  0
   -9.7886  -13.4981   11.5208 O   0  0  0  0  0  0  0  0  0  0  0  0
   -7.7264  -14.5390   11.7020 N   0  0  0  0  0  0  0  0  0  0  0  0
   -8.1889  -15.8197   11.5323 C   0  0  0  0  0  0  0  0  0  0  0  0
   -9.4747  -16.2039   11.8163 N   0  0  0  0  0  0  0  0  0  0  0  0
   -9.5964  -17.5375   11.5379 C   0  0  0  0  0  0  0  0  0  0  0  0
  -10.6643  -18.4283   11.6415 C   0  0  0  0  0  0  0  0  0  0  0  0
  -10.4051  -19.7586   11.2778 C   0  0  0  0  0  0  0  0  0  0  0  0
   -9.1530  -20.1507   10.7795 C   0  0  0  0  0  0  0  0  0  0  0  0
   -8.1017  -19.2294   10.6839 C   0  0  0  0  0  0  0  0  0  0  0  0
   -8.3349  -17.9032   11.0783 C   0  0  0  0  0  0  0  0  0  0  0  0
   -7.4773  -16.8281   11.0838 N   0  0  0  0  0  0  0  0  0  0  0  0
   -8.8530  -21.7658   10.2429 Cl  0  0  0  0  0  0  0  0  0  0  0  0
  -11.4669  -20.6323   11.3734 O   0  0  0  0  0  0  0  0  0  0  0  0
  -12.5262  -20.4408   10.5053 C   0  0  0  0  0  0  0  0  0  0  0  0
  -13.3188  -19.2846   10.5304 C   0  0  0  0  0  0  0  0  0  0  0  0
  -14.3665  -19.1344    9.6224 C   0  0  0  0  0  0  0  0  0  0  0  0
  -14.6219  -20.1279    8.6796 C   0  0  0  0  0  0  0  0  0  0  0  0
  -13.8238  -21.2756    8.6345 C   0  0  0  0  0  0  0  0  0  0  0  0
  -12.7674  -21.4342    9.5416 C   0  0  0  0  0  0  0  0  0  0  0  0
  -11.7588  -22.8458    9.4996 Cl  0  0  0  0  0  0  0  0  0  0  0  0
  -14.1988  -22.4584    7.4296 Cl  0  0  0  0  0  0  0  0  0  0  0  0
  1  2  1  0
  2  3  2  0
  2  4  1  0
  4  5  1  0
  5  6  1  0
  5 13  2  0
  6  7  1  0
  7  8  2  0
  7 12  1  0
  8  9  1  0
  9 10  2  0
  9 15  1  0
 10 11  1  0
 10 14  1  0
 11 12  2  0
 12 13  1  0
 15 16  1  0
 16 17  2  0
 16 21  1  0
 17 18  1  0
 18 19  2  0
 19 20  1  0
 20 21  2  0
 20 23  1  0
 21 22  1  0
M  END
>  <Gold.Gold.Protein.RotatedWaterAtoms>  (385) 


>  <Gold.Id.Protein>  (385) 


>  <Gold.PLP.Chemscore.CHOScore>  (385) 
0.0000

>  <Gold.PLP.Chemscore.Hbond>  (385) 
1.0000

>  <Gold.PLP.Chemscore.Internal.Correction>  (385) 
0.0086

>  <Gold.PLP.Chemscore.Metal>  (385) 
0.0000

>  <Gold.PLP.Fitness>  (385) 
50.7139

>  <Gold.PLP.PLP>  (385) 
-48.1706

>  <Gold.PLP.ligand.clash>  (385) 
0.0000

>  <Gold.PLP.ligand.torsion>  (385) 
0.2327

>  <Gold.PLP.part.buried>  (385) 
-6.5205

>  <Gold.PLP.part.hbond>  (385) 
-2.0000

>  <Gold.PLP.part.metal>  (385) 
0.0000

>  <Gold.PLP.part.nonpolar>  (385) 
-39.3857

>  <Gold.PLP.part.repulsive>  (385) 
0.3298

>  <Gold.Protein.RotatedAtoms>  (385) 


>  <Gold.Protein.RotatedTorsions>  (385) 


>  <Gold.Protein.RotatedWaterAtoms>  (385) 


>  <Gold.Version>  (385) 
5.3.0

>  <PLP.Chemscore.CHOScore>  (385) 


>  <PLP.Chemscore.Hbond>  (385) 


>  <PLP.Chemscore.Internal.Correction>  (385) 


>  <PLP.Chemscore.Metal>  (385) 


>  <PLP.Fitness>  (385) 


>  <PLP.PLP>  (385) 


>  <PLP.ligand.clash>  (385) 


>  <PLP.ligand.torsion>  (385) 


>  <PLP.part.buried>  (385) 


>  <PLP.part.hbond>  (385) 


>  <PLP.part.metal>  (385) 


>  <PLP.part.nonpolar>  (385) 


>  <PLP.part.repulsive>  (385) 


>  <RMSD>  (385) 
0.439733510035

>  <Torsion>  (385) 
177.672185574

>  <TorsionO>  (385) 
4.31728583372

>  <TorsionR>  (385) 
173.35489974

>  <Version>  (385) 


>  <product>  (385) 
96|Compound_34|Compounds_3D_F|sdf|15|dock7|1

>  <rmsd>  (385) 
-1

$$$$
73|Compound_26|Compounds_3D_F|sdf|12|dock5|1
     RDKit          3D

  9  8  0  0  0  0  0  0  0  0999 V2000
   -9.0879  -14.2070   10.5170 O   0  0  0  0  0  0  0  0  0  0  0  0
   -8.3591  -13.8398   11.5818 C   0  0  0  0  0  0  0  0  0  0  0  0
   -8.4845  -12.7316   12.0480 O   0  0  0  0  0  0  0  0  0  0  0  0
   -7.3826  -14.8090   12.1972 C   0  0  0  0  0  0  0  0  0  0  0  0
   -6.0576  -14.0945   12.4707 C   0  0  0  0  0  0  0  0  0  0  0  0
   -4.9617  -14.8417   11.8484 N   0  0  0  0  0  0  0  0  0  0  0  0
   -4.7787  -16.1428   12.1466 C   0  0  0  0  0  0  0  0  0  0  0  0
   -5.5207  -16.6960   12.9300 O   0  0  0  0  0  0  0  0  0  0  0  0
   -3.6051  -16.9440   11.4785 B   0  0  0  0  0  0  0  0  0  0  0  0
  1  2  1  0
  2  3  2  0
  2  4  1  0
  4  5  1  0
  5  6  1  0
  6  7  1  0
  7  8  2  0
  7  9  1  0
M  END
>  <Gold.Gold.Protein.RotatedWaterAtoms>  (386) 


>  <Gold.Id.Protein>  (386) 


>  <Gold.PLP.Chemscore.CHOScore>  (386) 
0.0000

>  <Gold.PLP.Chemscore.Hbond>  (386) 
2.0014

>  <Gold.PLP.Chemscore.Internal.Correction>  (386) 
0.0004

>  <Gold.PLP.Chemscore.Metal>  (386) 
0.0000

>  <Gold.PLP.Fitness>  (386) 
29.6997

>  <Gold.PLP.PLP>  (386) 
-24.8036

>  <Gold.PLP.ligand.clash>  (386) 
0.0000

>  <Gold.PLP.ligand.torsion>  (386) 
0.5542

>  <Gold.PLP.part.buried>  (386) 
-6.3980

>  <Gold.PLP.part.hbond>  (386) 
-3.2652

>  <Gold.PLP.part.metal>  (386) 
0.0000

>  <Gold.PLP.part.nonpolar>  (386) 
-15.5888

>  <Gold.PLP.part.repulsive>  (386) 
0.2499

>  <Gold.Protein.RotatedAtoms>  (386) 


>  <Gold.Protein.RotatedTorsions>  (386) 


>  <Gold.Protein.RotatedWaterAtoms>  (386) 


>  <Gold.Version>  (386) 
5.3.0

>  <PLP.Chemscore.CHOScore>  (386) 


>  <PLP.Chemscore.Hbond>  (386) 


>  <PLP.Chemscore.Internal.Correction>  (386) 


>  <PLP.Chemscore.Metal>  (386) 


>  <PLP.Fitness>  (386) 


>  <PLP.PLP>  (386) 


>  <PLP.ligand.clash>  (386) 


>  <PLP.ligand.torsion>  (386) 


>  <PLP.part.buried>  (386) 


>  <PLP.part.hbond>  (386) 


>  <PLP.part.metal>  (386) 


>  <PLP.part.nonpolar>  (386) 


>  <PLP.part.repulsive>  (386) 


>  <Version>  (386) 


$$$$
94|664022_40|Aromatic_carboxylic_acids_F|sdf|24|dock1|1
     RDKit          3D

 12 12  0  0  0  0  0  0  0  0999 V2000
   -8.2596  -17.1212   11.4595 C   0  0  0  0  0  0  0  0  0  0  0  0
   -7.6366  -15.8367   11.6688 N   0  0  0  0  0  0  0  0  0  0  0  0
   -8.3409  -14.6553   11.5719 C   0  0  0  0  0  0  0  0  0  0  0  0
   -9.5296  -14.5547   11.2978 O   0  0  0  0  0  0  0  0  0  0  0  0
   -7.5420  -13.4431   11.8503 C   0  0  0  0  0  0  0  0  0  0  0  0
   -8.1627  -12.1983   11.6738 C   0  0  0  0  0  0  0  0  0  0  0  0
   -7.4390  -11.0301   11.9055 C   0  0  0  0  0  0  0  0  0  0  0  0
   -6.1069  -11.0910   12.3103 C   0  0  0  0  0  0  0  0  0  0  0  0
   -5.4897  -12.3324   12.4853 C   0  0  0  0  0  0  0  0  0  0  0  0
   -6.2035  -13.5136   12.2549 C   0  0  0  0  0  0  0  0  0  0  0  0
   -5.3062  -15.1564   12.5638 Br  0  0  0  0  0  0  0  0  0  0  0  0
   -8.1960   -9.5005   11.6887 Cl  0  0  0  0  0  0  0  0  0  0  0  0
  1  2  1  0
  2  3  1  0
  3  4  2  0
  3  5  1  0
  5  6  2  0
  5 10  1  0
  6  7  1  0
  7  8  2  0
  7 12  1  0
  8  9  1  0
  9 10  2  0
 10 11  1  0
M  END
>  <Gold.Gold.Protein.RotatedWaterAtoms>  (387) 


>  <Gold.Id.Protein>  (387) 


>  <Gold.PLP.Chemscore.CHOScore>  (387) 
0.0000

>  <Gold.PLP.Chemscore.Hbond>  (387) 
0.4160

>  <Gold.PLP.Chemscore.Internal.Correction>  (387) 
0.0004

>  <Gold.PLP.Chemscore.Metal>  (387) 
0.0000

>  <Gold.PLP.Fitness>  (387) 
48.9046

>  <Gold.PLP.PLP>  (387) 
-47.6744

>  <Gold.PLP.ligand.clash>  (387) 
0.0000

>  <Gold.PLP.ligand.torsion>  (387) 
0.0091

>  <Gold.PLP.part.buried>  (387) 
-7.3578

>  <Gold.PLP.part.hbond>  (387) 
-0.5127

>  <Gold.PLP.part.metal>  (387) 
0.0000

>  <Gold.PLP.part.nonpolar>  (387) 
-40.3098

>  <Gold.PLP.part.repulsive>  (387) 
0.1684

>  <Gold.Protein.RotatedAtoms>  (387) 


>  <Gold.Protein.RotatedTorsions>  (387) 


>  <Gold.Protein.RotatedWaterAtoms>  (387) 


>  <Gold.Version>  (387) 
5.3.0

>  <PLP.Chemscore.CHOScore>  (387) 


>  <PLP.Chemscore.Hbond>  (387) 


>  <PLP.Chemscore.Internal.Correction>  (387) 


>  <PLP.Chemscore.Metal>  (387) 


>  <PLP.Fitness>  (387) 


>  <PLP.PLP>  (387) 


>  <PLP.ligand.clash>  (387) 


>  <PLP.ligand.torsion>  (387) 


>  <PLP.part.buried>  (387) 


>  <PLP.part.hbond>  (387) 


>  <PLP.part.metal>  (387) 


>  <PLP.part.nonpolar>  (387) 


>  <PLP.part.repulsive>  (387) 


>  <RMSD>  (387) 
0.30972197429

>  <Torsion>  (387) 
172.929186758

>  <TorsionO>  (387) 
24.4968065243

>  <TorsionR>  (387) 
162.574006718

>  <Version>  (387) 


>  <product>  (387) 
73|Compound_26|Compounds_3D_F|sdf|12|dock5|1

>  <rmsd>  (387) 
-1

$$$$
110|565385_49|Aromatic_carboxylic_acids_F|sdf|29|dock1|1
     RDKit          3D

 13 13  0  0  0  0  0  0  0  0999 V2000
  -10.1118  -17.9021   11.6320 C   0  0  0  0  0  0  0  0  0  0  0  0
   -9.7537  -16.5043   11.6546 N   0  0  0  0  0  0  0  0  0  0  0  0
   -8.4330  -16.1187   11.7930 C   0  0  0  0  0  0  0  0  0  0  0  0
   -7.5159  -16.9298   11.9008 O   0  0  0  0  0  0  0  0  0  0  0  0
   -8.1234  -14.6552   11.8105 C   0  0  0  0  0  0  0  0  0  0  0  0
   -9.0636  -13.6551   11.5375 C   0  0  0  0  0  0  0  0  0  0  0  0
   -8.6966  -12.3009   11.5726 C   0  0  0  0  0  0  0  0  0  0  0  0
   -7.3879  -11.9195   11.8809 C   0  0  0  0  0  0  0  0  0  0  0  0
   -6.4486  -12.9235   12.1551 C   0  0  0  0  0  0  0  0  0  0  0  0
   -6.8098  -14.2750   12.1207 C   0  0  0  0  0  0  0  0  0  0  0  0
   -4.6444  -12.5025   12.5849 Br  0  0  0  0  0  0  0  0  0  0  0  0
   -6.9476  -10.6242   11.9372 O   0  0  0  0  0  0  0  0  0  0  0  0
   -7.9020   -9.5910   11.7256 C   0  0  0  0  0  0  0  0  0  0  0  0
  1  2  1  0
  2  3  1  0
  3  4  2  0
  3  5  1  0
  5  6  2  0
  5 10  1  0
  6  7  1  0
  7  8  2  0
  8  9  1  0
  8 12  1  0
  9 10  2  0
  9 11  1  0
 12 13  1  0
M  END
>  <Gold.Gold.Protein.RotatedWaterAtoms>  (388) 


>  <Gold.Id.Protein>  (388) 


>  <Gold.PLP.Chemscore.CHOScore>  (388) 
0.0000

>  <Gold.PLP.Chemscore.Hbond>  (388) 
1.0000

>  <Gold.PLP.Chemscore.Internal.Correction>  (388) 
0.0000

>  <Gold.PLP.Chemscore.Metal>  (388) 
0.0000

>  <Gold.PLP.Fitness>  (388) 
43.9775

>  <Gold.PLP.PLP>  (388) 
-41.0517

>  <Gold.PLP.ligand.clash>  (388) 
0.0000

>  <Gold.PLP.ligand.torsion>  (388) 
0.0371

>  <Gold.PLP.part.buried>  (388) 
-3.7367

>  <Gold.PLP.part.hbond>  (388) 
-1.0000

>  <Gold.PLP.part.metal>  (388) 
0.0000

>  <Gold.PLP.part.nonpolar>  (388) 
-36.7483

>  <Gold.PLP.part.repulsive>  (388) 
0.4054

>  <Gold.Protein.RotatedAtoms>  (388) 


>  <Gold.Protein.RotatedTorsions>  (388) 


>  <Gold.Protein.RotatedWaterAtoms>  (388) 


>  <Gold.Version>  (388) 
5.3.0

>  <PLP.Chemscore.CHOScore>  (388) 


>  <PLP.Chemscore.Hbond>  (388) 


>  <PLP.Chemscore.Internal.Correction>  (388) 


>  <PLP.Chemscore.Metal>  (388) 


>  <PLP.Fitness>  (388) 


>  <PLP.PLP>  (388) 


>  <PLP.ligand.clash>  (388) 


>  <PLP.ligand.torsion>  (388) 


>  <PLP.part.buried>  (388) 


>  <PLP.part.hbond>  (388) 


>  <PLP.part.metal>  (388) 


>  <PLP.part.nonpolar>  (388) 


>  <PLP.part.repulsive>  (388) 


>  <RMSD>  (388) 
0.319376411377

>  <Torsion>  (388) 
169.460450784

>  <TorsionO>  (388) 
9.7963905484

>  <TorsionR>  (388) 
179.256841332

>  <Version>  (388) 


>  <product>  (388) 
73|Compound_26|Compounds_3D_F|sdf|12|dock5|1

>  <rmsd>  (388) 
-1

$$$$
128|137677_56|Aromatic_carboxylic_acids_F|sdf|33|dock1|1
     RDKit          3D

 11 11  0  0  0  0  0  0  0  0999 V2000
   -8.6116  -16.1544   11.8887 C   0  0  0  0  0  0  0  0  0  0  0  0
   -7.9978  -14.8484   11.9215 N   0  0  0  0  0  0  0  0  0  0  0  0
   -8.7778  -13.7008   11.8756 C   0  0  0  0  0  0  0  0  0  0  0  0
  -10.0002  -13.7896   11.8139 O   0  0  0  0  0  0  0  0  0  0  0  0
   -8.0808  -12.3609   11.9017 C   0  0  0  0  0  0  0  0  0  0  0  0
   -8.7916  -11.1851   11.5813 C   0  0  0  0  0  0  0  0  0  0  0  0
   -8.1781   -9.9267   11.5989 C   0  0  0  0  0  0  0  0  0  0  0  0
   -6.8391   -9.8089   11.9369 C   0  0  0  0  0  0  0  0  0  0  0  0
   -6.1124  -10.9502   12.2575 C   0  0  0  0  0  0  0  0  0  0  0  0
   -6.7171  -12.2196   12.2428 C   0  0  0  0  0  0  0  0  0  0  0  0
   -5.5419  -13.6455   12.7121 Br  0  0  0  0  0  0  0  0  0  0  0  0
  1  2  1  0
  2  3  1  0
  3  4  2  0
  3  5  1  0
  5  6  2  0
  5 10  1  0
  6  7  1  0
  7  8  2  0
  8  9  1  0
  9 10  2  0
 10 11  1  0
M  END
>  <Gold.Gold.Protein.RotatedWaterAtoms>  (389) 


>  <Gold.Id.Protein>  (389) 


>  <Gold.PLP.Chemscore.CHOScore>  (389) 
0.0000

>  <Gold.PLP.Chemscore.Hbond>  (389) 
1.0000

>  <Gold.PLP.Chemscore.Internal.Correction>  (389) 
0.0000

>  <Gold.PLP.Chemscore.Metal>  (389) 
0.0000

>  <Gold.PLP.Fitness>  (389) 
45.2899

>  <Gold.PLP.PLP>  (389) 
-42.4444

>  <Gold.PLP.ligand.clash>  (389) 
0.0000

>  <Gold.PLP.ligand.torsion>  (389) 
0.0772

>  <Gold.PLP.part.buried>  (389) 
-6.4690

>  <Gold.PLP.part.hbond>  (389) 
-0.6863

>  <Gold.PLP.part.metal>  (389) 
0.0000

>  <Gold.PLP.part.nonpolar>  (389) 
-34.8280

>  <Gold.PLP.part.repulsive>  (389) 
0.1963

>  <Gold.Protein.RotatedAtoms>  (389) 


>  <Gold.Protein.RotatedTorsions>  (389) 


>  <Gold.Protein.RotatedWaterAtoms>  (389) 


>  <Gold.Version>  (389) 
5.3.0

>  <PLP.Chemscore.CHOScore>  (389) 


>  <PLP.Chemscore.Hbond>  (389) 


>  <PLP.Chemscore.Internal.Correction>  (389) 


>  <PLP.Chemscore.Metal>  (389) 


>  <PLP.Fitness>  (389) 


>  <PLP.PLP>  (389) 


>  <PLP.ligand.clash>  (389) 


>  <PLP.ligand.torsion>  (389) 


>  <PLP.part.buried>  (389) 


>  <PLP.part.hbond>  (389) 


>  <PLP.part.metal>  (389) 


>  <PLP.part.nonpolar>  (389) 


>  <PLP.part.repulsive>  (389) 


>  <RMSD>  (389) 
0.428070490903

>  <Torsion>  (389) 
152.444048788

>  <TorsionO>  (389) 
39.0580871276

>  <TorsionR>  (389) 
168.497864085

>  <Version>  (389) 


>  <product>  (389) 
73|Compound_26|Compounds_3D_F|sdf|12|dock5|1

>  <rmsd>  (389) 
-1

$$$$
974|750794_1404|Aromatic_primary_amines_F|sdf|194|dock3|1
     RDKit          3D

 14 14  0  0  0  0  0  0  0  0999 V2000
  -13.6355  -18.1936    9.4145 C   0  0  0  0  0  0  0  0  0  0  0  0
  -13.2544  -19.4497   10.1732 C   0  0  0  0  0  0  0  0  0  0  0  0
  -11.8731  -19.3506   10.5383 O   0  0  0  0  0  0  0  0  0  0  0  0
  -11.6148  -18.5085   11.5823 C   0  0  0  0  0  0  0  0  0  0  0  0
  -12.3947  -18.2810   12.5004 O   0  0  0  0  0  0  0  0  0  0  0  0
  -10.3031  -17.8985   11.4902 C   0  0  0  0  0  0  0  0  0  0  0  0
   -9.1673  -18.4974   10.9931 C   0  0  0  0  0  0  0  0  0  0  0  0
   -8.1448  -17.6055   11.0758 O   0  0  0  0  0  0  0  0  0  0  0  0
   -8.7110  -16.4917   11.6237 C   0  0  0  0  0  0  0  0  0  0  0  0
   -9.9933  -16.6110   11.8915 N   0  0  0  0  0  0  0  0  0  0  0  0
   -7.9611  -15.3718   11.8549 N   0  0  0  0  0  0  0  0  0  0  0  0
   -8.5046  -14.1249   12.0676 C   0  0  0  0  0  0  0  0  0  0  0  0
   -9.6950  -13.8313   12.1035 O   0  0  0  0  0  0  0  0  0  0  0  0
   -7.4448  -13.0785   12.3021 C   0  0  0  0  0  0  0  0  0  0  0  0
  1  2  1  0
  2  3  1  0
  3  4  1  0
  4  5  2  0
  4  6  1  0
  6  7  2  0
  6 10  1  0
  7  8  1  0
  8  9  1  0
  9 10  2  0
  9 11  1  0
 11 12  1  0
 12 13  2  0
 12 14  1  0
M  END
>  <Gold.Gold.Protein.RotatedWaterAtoms>  (390) 


>  <Gold.Id.Protein>  (390) 


>  <Gold.PLP.Chemscore.CHOScore>  (390) 
0.0000

>  <Gold.PLP.Chemscore.Hbond>  (390) 
2.0000

>  <Gold.PLP.Chemscore.Internal.Correction>  (390) 
0.0053

>  <Gold.PLP.Chemscore.Metal>  (390) 
0.0000

>  <Gold.PLP.Fitness>  (390) 
36.8047

>  <Gold.PLP.PLP>  (390) 
-32.7996

>  <Gold.PLP.ligand.clash>  (390) 
0.0000

>  <Gold.PLP.ligand.torsion>  (390) 
1.0001

>  <Gold.PLP.part.buried>  (390) 
-6.5206

>  <Gold.PLP.part.hbond>  (390) 
-2.9156

>  <Gold.PLP.part.metal>  (390) 
0.0000

>  <Gold.PLP.part.nonpolar>  (390) 
-23.4080

>  <Gold.PLP.part.repulsive>  (390) 
0.3100

>  <Gold.Protein.RotatedAtoms>  (390) 


>  <Gold.Protein.RotatedTorsions>  (390) 


>  <Gold.Protein.RotatedWaterAtoms>  (390) 


>  <Gold.Version>  (390) 
5.3.0

>  <PLP.Chemscore.CHOScore>  (390) 


>  <PLP.Chemscore.Hbond>  (390) 


>  <PLP.Chemscore.Internal.Correction>  (390) 


>  <PLP.Chemscore.Metal>  (390) 


>  <PLP.Fitness>  (390) 


>  <PLP.PLP>  (390) 


>  <PLP.ligand.clash>  (390) 


>  <PLP.ligand.torsion>  (390) 


>  <PLP.part.buried>  (390) 


>  <PLP.part.hbond>  (390) 


>  <PLP.part.metal>  (390) 


>  <PLP.part.nonpolar>  (390) 


>  <PLP.part.repulsive>  (390) 


>  <RMSD>  (390) 
0.499949349045

>  <Torsion>  (390) 
159.973716791

>  <TorsionO>  (390) 
19.1052109979

>  <TorsionR>  (390) 
179.078927789

>  <Version>  (390) 


>  <product>  (390) 
73|Compound_26|Compounds_3D_F|sdf|12|dock5|1

>  <rmsd>  (390) 
-1

$$$$
1884|M3006_1781|Aromatic_primary_amines_F|sdf|361|dock3|1
     RDKit          3D

 31 34  0  0  0  0  0  0  0  0999 V2000
  -14.4210  -19.8971    8.7934 C   0  0  0  0  0  0  0  0  0  0  0  0
  -13.9762  -19.4927   10.1894 C   0  0  0  0  0  0  0  0  0  0  0  0
  -14.1356  -20.6409   11.1817 C   0  0  0  0  0  0  0  0  0  0  0  0
  -13.5197  -20.3070   12.5189 C   0  0  0  0  0  0  0  0  0  0  0  0
  -12.9307  -19.2724   12.7954 O   0  0  0  0  0  0  0  0  0  0  0  0
  -13.7110  -21.3451   13.3845 O   0  0  0  0  0  0  0  0  0  0  0  0
  -12.9425  -21.2698   14.5900 C   0  0  0  0  0  0  0  0  0  0  0  0
  -12.8849  -22.6189   15.2889 C   0  0  0  0  0  0  0  0  0  0  0  0
  -11.6552  -22.4172   16.1494 C   0  0  0  0  0  0  0  0  0  0  0  0
  -11.2420  -23.7410   16.7624 C   0  0  0  0  0  0  0  0  0  0  0  0
  -12.3024  -24.2223   17.5862 O   0  0  0  0  0  0  0  0  0  0  0  0
  -13.7888  -24.3384   16.9603 P   0  0  0  0  0  0  0  0  0  0  0  0
  -14.8775  -24.6795   17.9243 O   0  0  0  0  0  0  0  0  0  0  0  0
  -13.9839  -22.9641   16.1174 O   0  0  0  0  0  0  0  0  0  0  0  0
  -13.5991  -25.4435   15.8075 O   0  0  0  0  0  0  0  0  0  0  0  0
  -10.6922  -21.8161   15.2889 O   0  0  0  0  0  0  0  0  0  0  0  0
  -11.4338  -20.9664   14.3653 C   0  0  0  0  0  0  0  0  0  0  0  0
  -10.9052  -21.2017   13.0342 N   0  0  0  0  0  0  0  0  0  0  0  0
  -10.7814  -22.4114   12.4013 C   0  0  0  0  0  0  0  0  0  0  0  0
  -10.2640  -22.2918   11.1953 N   0  0  0  0  0  0  0  0  0  0  0  0
  -10.0274  -20.9476   11.0424 C   0  0  0  0  0  0  0  0  0  0  0  0
  -10.4203  -20.2487   12.1733 C   0  0  0  0  0  0  0  0  0  0  0  0
  -10.3338  -18.9216   12.3641 N   0  0  0  0  0  0  0  0  0  0  0  0
   -9.8057  -18.2730   11.3024 C   0  0  0  0  0  0  0  0  0  0  0  0
   -9.3808  -18.8370   10.1545 N   0  0  0  0  0  0  0  0  0  0  0  0
   -9.4895  -20.1691   10.0244 C   0  0  0  0  0  0  0  0  0  0  0  0
   -9.0330  -20.6622    8.8349 O   0  0  0  0  0  0  0  0  0  0  0  0
   -9.7222  -16.8901   11.4793 N   0  0  0  0  0  0  0  0  0  0  0  0
   -8.5796  -16.1798   11.7761 C   0  0  0  0  0  0  0  0  0  0  0  0
   -7.4445  -16.6221   11.9131 O   0  0  0  0  0  0  0  0  0  0  0  0
   -8.8524  -14.7024   11.8973 C   0  0  0  0  0  0  0  0  0  0  0  0
  1  2  1  0
  2  3  1  0
  3  4  1  0
  4  5  2  0
  4  6  1  0
  6  7  1  0
  7  8  1  0
  7 17  1  0
  8  9  1  0
  8 14  1  0
  9 10  1  0
  9 16  1  0
 10 11  1  0
 11 12  1  0
 12 13  2  0
 12 14  1  0
 12 15  1  0
 16 17  1  0
 17 18  1  0
 18 19  1  0
 18 22  1  0
 19 20  2  0
 20 21  1  0
 21 22  2  0
 21 26  1  0
 22 23  1  0
 23 24  2  0
 24 25  1  0
 24 28  1  0
 25 26  2  0
 26 27  1  0
 28 29  1  0
 29 30  2  0
 29 31  1  0
M  END
>  <Gold.Gold.Protein.RotatedWaterAtoms>  (391) 


>  <Gold.Id.Protein>  (391) 


>  <Gold.PLP.Chemscore.CHOScore>  (391) 
0.0000

>  <Gold.PLP.Chemscore.Hbond>  (391) 
1.2080

>  <Gold.PLP.Chemscore.Internal.Correction>  (391) 
0.1232

>  <Gold.PLP.Chemscore.Metal>  (391) 
0.0000

>  <Gold.PLP.Fitness>  (391) 
47.7145

>  <Gold.PLP.PLP>  (391) 
-46.0218

>  <Gold.PLP.ligand.clash>  (391) 
0.0000

>  <Gold.PLP.ligand.torsion>  (391) 
1.0272

>  <Gold.PLP.part.buried>  (391) 
-2.2958

>  <Gold.PLP.part.hbond>  (391) 
-4.0214

>  <Gold.PLP.part.metal>  (391) 
0.0000

>  <Gold.PLP.part.nonpolar>  (391) 
-41.4699

>  <Gold.PLP.part.repulsive>  (391) 
0.9524

>  <Gold.Protein.RotatedAtoms>  (391) 


>  <Gold.Protein.RotatedTorsions>  (391) 


>  <Gold.Protein.RotatedWaterAtoms>  (391) 


>  <Gold.Version>  (391) 
5.3.0

>  <PLP.Chemscore.CHOScore>  (391) 


>  <PLP.Chemscore.Hbond>  (391) 


>  <PLP.Chemscore.Internal.Correction>  (391) 


>  <PLP.Chemscore.Metal>  (391) 


>  <PLP.Fitness>  (391) 


>  <PLP.PLP>  (391) 


>  <PLP.ligand.clash>  (391) 


>  <PLP.ligand.torsion>  (391) 


>  <PLP.part.buried>  (391) 


>  <PLP.part.hbond>  (391) 


>  <PLP.part.metal>  (391) 


>  <PLP.part.nonpolar>  (391) 


>  <PLP.part.repulsive>  (391) 


>  <RMSD>  (391) 
0.291955871297

>  <Torsion>  (391) 
171.923704933

>  <TorsionO>  (391) 
6.03609353985

>  <TorsionR>  (391) 
177.959798473

>  <Version>  (391) 


>  <product>  (391) 
73|Compound_26|Compounds_3D_F|sdf|12|dock5|1

>  <rmsd>  (391) 
-1

$$$$
193|32168_281|Aromatic_primary_amines_F|sdf|39|dock6|1
     RDKit          3D

 23 25  0  0  0  0  0  0  0  0999 V2000
   -7.8439  -12.1461   11.8919 C   0  0  0  0  0  0  0  0  0  0  0  0
   -8.5691  -13.4472   11.6781 C   0  0  0  0  0  0  0  0  0  0  0  0
   -9.7886  -13.4981   11.5208 O   0  0  0  0  0  0  0  0  0  0  0  0
   -7.7264  -14.5390   11.7020 N   0  0  0  0  0  0  0  0  0  0  0  0
   -8.1889  -15.8197   11.5323 C   0  0  0  0  0  0  0  0  0  0  0  0
   -9.4747  -16.2039   11.8163 N   0  0  0  0  0  0  0  0  0  0  0  0
   -9.5964  -17.5375   11.5379 C   0  0  0  0  0  0  0  0  0  0  0  0
  -10.6643  -18.4283   11.6415 C   0  0  0  0  0  0  0  0  0  0  0  0
  -10.4051  -19.7586   11.2778 C   0  0  0  0  0  0  0  0  0  0  0  0
   -9.1530  -20.1507   10.7795 C   0  0  0  0  0  0  0  0  0  0  0  0
   -8.1017  -19.2294   10.6839 C   0  0  0  0  0  0  0  0  0  0  0  0
   -8.3349  -17.9032   11.0783 C   0  0  0  0  0  0  0  0  0  0  0  0
   -7.4773  -16.8281   11.0838 N   0  0  0  0  0  0  0  0  0  0  0  0
   -8.8530  -21.7658   10.2429 Cl  0  0  0  0  0  0  0  0  0  0  0  0
  -11.4669  -20.6323   11.3734 O   0  0  0  0  0  0  0  0  0  0  0  0
  -12.5262  -20.4408   10.5053 C   0  0  0  0  0  0  0  0  0  0  0  0
  -13.3188  -19.2846   10.5304 C   0  0  0  0  0  0  0  0  0  0  0  0
  -14.3665  -19.1344    9.6224 C   0  0  0  0  0  0  0  0  0  0  0  0
  -14.6219  -20.1279    8.6796 C   0  0  0  0  0  0  0  0  0  0  0  0
  -13.8238  -21.2756    8.6345 C   0  0  0  0  0  0  0  0  0  0  0  0
  -12.7674  -21.4342    9.5416 C   0  0  0  0  0  0  0  0  0  0  0  0
  -11.7588  -22.8458    9.4996 Cl  0  0  0  0  0  0  0  0  0  0  0  0
  -14.1988  -22.4584    7.4296 Cl  0  0  0  0  0  0  0  0  0  0  0  0
  1  2  1  0
  2  3  2  0
  2  4  1  0
  4  5  1  0
  5  6  1  0
  5 13  2  0
  6  7  1  0
  7  8  2  0
  7 12  1  0
  8  9  1  0
  9 10  2  0
  9 15  1  0
 10 11  1  0
 10 14  1  0
 11 12  2  0
 12 13  1  0
 15 16  1  0
 16 17  2  0
 16 21  1  0
 17 18  1  0
 18 19  2  0
 19 20  1  0
 20 21  2  0
 20 23  1  0
 21 22  1  0
M  END
>  <Gold.Gold.Protein.RotatedWaterAtoms>  (392) 


>  <Gold.Id.Protein>  (392) 


>  <Gold.PLP.Chemscore.CHOScore>  (392) 
0.0000

>  <Gold.PLP.Chemscore.Hbond>  (392) 
1.0000

>  <Gold.PLP.Chemscore.Internal.Correction>  (392) 
0.0086

>  <Gold.PLP.Chemscore.Metal>  (392) 
0.0000

>  <Gold.PLP.Fitness>  (392) 
50.7139

>  <Gold.PLP.PLP>  (392) 
-48.1706

>  <Gold.PLP.ligand.clash>  (392) 
0.0000

>  <Gold.PLP.ligand.torsion>  (392) 
0.2327

>  <Gold.PLP.part.buried>  (392) 
-6.5205

>  <Gold.PLP.part.hbond>  (392) 
-2.0000

>  <Gold.PLP.part.metal>  (392) 
0.0000

>  <Gold.PLP.part.nonpolar>  (392) 
-39.3857

>  <Gold.PLP.part.repulsive>  (392) 
0.3298

>  <Gold.Protein.RotatedAtoms>  (392) 


>  <Gold.Protein.RotatedTorsions>  (392) 


>  <Gold.Protein.RotatedWaterAtoms>  (392) 


>  <Gold.Version>  (392) 
5.3.0

>  <PLP.Chemscore.CHOScore>  (392) 


>  <PLP.Chemscore.Hbond>  (392) 


>  <PLP.Chemscore.Internal.Correction>  (392) 


>  <PLP.Chemscore.Metal>  (392) 


>  <PLP.Fitness>  (392) 


>  <PLP.PLP>  (392) 


>  <PLP.ligand.clash>  (392) 


>  <PLP.ligand.torsion>  (392) 


>  <PLP.part.buried>  (392) 


>  <PLP.part.hbond>  (392) 


>  <PLP.part.metal>  (392) 


>  <PLP.part.nonpolar>  (392) 


>  <PLP.part.repulsive>  (392) 


>  <RMSD>  (392) 
0.439733510035

>  <Torsion>  (392) 
177.672185574

>  <TorsionO>  (392) 
4.31728583372

>  <TorsionR>  (392) 
173.35489974

>  <Version>  (392) 


>  <product>  (392) 
73|Compound_26|Compounds_3D_F|sdf|12|dock5|1

>  <rmsd>  (392) 
-1

$$$$
97|Compound_41|Compounds_3D_F|sdf|16|dock1|1
     RDKit          3D

  9  8  0  0  0  0  0  0  0  0999 V2000
   -9.9670  -14.1001   12.7757 O   0  0  0  0  0  0  0  0  0  0  0  0
   -8.9769  -13.6760   11.9761 C   0  0  0  0  0  0  0  0  0  0  0  0
   -9.1189  -12.6725   11.3171 O   0  0  0  0  0  0  0  0  0  0  0  0
   -7.6866  -14.4511   11.8981 C   0  0  0  0  0  0  0  0  0  0  0  0
   -7.3812  -14.7533   10.4974 N   0  0  0  0  0  0  0  0  0  0  0  0
   -8.2349  -15.4958    9.7659 C   0  0  0  0  0  0  0  0  0  0  0  0
   -9.2569  -15.9143   10.2672 O   0  0  0  0  0  0  0  0  0  0  0  0
   -7.9082  -15.8192    8.2649 B   0  0  0  0  0  0  0  0  0  0  0  0
   -6.5537  -13.6154   12.4982 C   0  0  0  0  0  0  0  0  0  0  0  0
  1  2  1  0
  2  3  2  0
  2  4  1  0
  4  5  1  0
  4  9  1  0
  5  6  1  0
  6  7  2  0
  6  8  1  0
M  END
>  <Gold.Gold.Protein.RotatedWaterAtoms>  (393) 


>  <Gold.Id.Protein>  (393) 


>  <Gold.PLP.Chemscore.CHOScore>  (393) 
0.0000

>  <Gold.PLP.Chemscore.Hbond>  (393) 
2.0000

>  <Gold.PLP.Chemscore.Internal.Correction>  (393) 
0.0000

>  <Gold.PLP.Chemscore.Metal>  (393) 
0.0000

>  <Gold.PLP.Fitness>  (393) 
29.0370

>  <Gold.PLP.PLP>  (393) 
-23.2367

>  <Gold.PLP.ligand.clash>  (393) 
0.0000

>  <Gold.PLP.ligand.torsion>  (393) 
0.0999

>  <Gold.PLP.part.buried>  (393) 
-4.7380

>  <Gold.PLP.part.hbond>  (393) 
-3.7942

>  <Gold.PLP.part.metal>  (393) 
0.0000

>  <Gold.PLP.part.nonpolar>  (393) 
-14.9959

>  <Gold.PLP.part.repulsive>  (393) 
0.3156

>  <Gold.Protein.RotatedAtoms>  (393) 


>  <Gold.Protein.RotatedTorsions>  (393) 


>  <Gold.Protein.RotatedWaterAtoms>  (393) 


>  <Gold.Version>  (393) 
5.3.0

>  <PLP.Chemscore.CHOScore>  (393) 


>  <PLP.Chemscore.Hbond>  (393) 


>  <PLP.Chemscore.Internal.Correction>  (393) 


>  <PLP.Chemscore.Metal>  (393) 


>  <PLP.Fitness>  (393) 


>  <PLP.PLP>  (393) 


>  <PLP.ligand.clash>  (393) 


>  <PLP.ligand.torsion>  (393) 


>  <PLP.part.buried>  (393) 


>  <PLP.part.hbond>  (393) 


>  <PLP.part.metal>  (393) 


>  <PLP.part.nonpolar>  (393) 


>  <PLP.part.repulsive>  (393) 


>  <Version>  (393) 


$$$$
94|664022_40|Aromatic_carboxylic_acids_F|sdf|24|dock1|1
     RDKit          3D

 12 12  0  0  0  0  0  0  0  0999 V2000
   -8.2596  -17.1212   11.4595 C   0  0  0  0  0  0  0  0  0  0  0  0
   -7.6366  -15.8367   11.6688 N   0  0  0  0  0  0  0  0  0  0  0  0
   -8.3409  -14.6553   11.5719 C   0  0  0  0  0  0  0  0  0  0  0  0
   -9.5296  -14.5547   11.2978 O   0  0  0  0  0  0  0  0  0  0  0  0
   -7.5420  -13.4431   11.8503 C   0  0  0  0  0  0  0  0  0  0  0  0
   -8.1627  -12.1983   11.6738 C   0  0  0  0  0  0  0  0  0  0  0  0
   -7.4390  -11.0301   11.9055 C   0  0  0  0  0  0  0  0  0  0  0  0
   -6.1069  -11.0910   12.3103 C   0  0  0  0  0  0  0  0  0  0  0  0
   -5.4897  -12.3324   12.4853 C   0  0  0  0  0  0  0  0  0  0  0  0
   -6.2035  -13.5136   12.2549 C   0  0  0  0  0  0  0  0  0  0  0  0
   -5.3062  -15.1564   12.5638 Br  0  0  0  0  0  0  0  0  0  0  0  0
   -8.1960   -9.5005   11.6887 Cl  0  0  0  0  0  0  0  0  0  0  0  0
  1  2  1  0
  2  3  1  0
  3  4  2  0
  3  5  1  0
  5  6  2  0
  5 10  1  0
  6  7  1  0
  7  8  2  0
  7 12  1  0
  8  9  1  0
  9 10  2  0
 10 11  1  0
M  END
>  <Gold.Gold.Protein.RotatedWaterAtoms>  (394) 


>  <Gold.Id.Protein>  (394) 


>  <Gold.PLP.Chemscore.CHOScore>  (394) 
0.0000

>  <Gold.PLP.Chemscore.Hbond>  (394) 
0.4160

>  <Gold.PLP.Chemscore.Internal.Correction>  (394) 
0.0004

>  <Gold.PLP.Chemscore.Metal>  (394) 
0.0000

>  <Gold.PLP.Fitness>  (394) 
48.9046

>  <Gold.PLP.PLP>  (394) 
-47.6744

>  <Gold.PLP.ligand.clash>  (394) 
0.0000

>  <Gold.PLP.ligand.torsion>  (394) 
0.0091

>  <Gold.PLP.part.buried>  (394) 
-7.3578

>  <Gold.PLP.part.hbond>  (394) 
-0.5127

>  <Gold.PLP.part.metal>  (394) 
0.0000

>  <Gold.PLP.part.nonpolar>  (394) 
-40.3098

>  <Gold.PLP.part.repulsive>  (394) 
0.1684

>  <Gold.Protein.RotatedAtoms>  (394) 


>  <Gold.Protein.RotatedTorsions>  (394) 


>  <Gold.Protein.RotatedWaterAtoms>  (394) 


>  <Gold.Version>  (394) 
5.3.0

>  <PLP.Chemscore.CHOScore>  (394) 


>  <PLP.Chemscore.Hbond>  (394) 


>  <PLP.Chemscore.Internal.Correction>  (394) 


>  <PLP.Chemscore.Metal>  (394) 


>  <PLP.Fitness>  (394) 


>  <PLP.PLP>  (394) 


>  <PLP.ligand.clash>  (394) 


>  <PLP.ligand.torsion>  (394) 


>  <PLP.part.buried>  (394) 


>  <PLP.part.hbond>  (394) 


>  <PLP.part.metal>  (394) 


>  <PLP.part.nonpolar>  (394) 


>  <PLP.part.repulsive>  (394) 


>  <RMSD>  (394) 
0.30972197429

>  <Torsion>  (394) 
172.929186758

>  <TorsionO>  (394) 
24.4968065243

>  <TorsionR>  (394) 
162.574006718

>  <Version>  (394) 


>  <product>  (394) 
97|Compound_41|Compounds_3D_F|sdf|16|dock1|1

>  <rmsd>  (394) 
-1

$$$$
110|565385_49|Aromatic_carboxylic_acids_F|sdf|29|dock1|1
     RDKit          3D

 13 13  0  0  0  0  0  0  0  0999 V2000
  -10.1118  -17.9021   11.6320 C   0  0  0  0  0  0  0  0  0  0  0  0
   -9.7537  -16.5043   11.6546 N   0  0  0  0  0  0  0  0  0  0  0  0
   -8.4330  -16.1187   11.7930 C   0  0  0  0  0  0  0  0  0  0  0  0
   -7.5159  -16.9298   11.9008 O   0  0  0  0  0  0  0  0  0  0  0  0
   -8.1234  -14.6552   11.8105 C   0  0  0  0  0  0  0  0  0  0  0  0
   -9.0636  -13.6551   11.5375 C   0  0  0  0  0  0  0  0  0  0  0  0
   -8.6966  -12.3009   11.5726 C   0  0  0  0  0  0  0  0  0  0  0  0
   -7.3879  -11.9195   11.8809 C   0  0  0  0  0  0  0  0  0  0  0  0
   -6.4486  -12.9235   12.1551 C   0  0  0  0  0  0  0  0  0  0  0  0
   -6.8098  -14.2750   12.1207 C   0  0  0  0  0  0  0  0  0  0  0  0
   -4.6444  -12.5025   12.5849 Br  0  0  0  0  0  0  0  0  0  0  0  0
   -6.9476  -10.6242   11.9372 O   0  0  0  0  0  0  0  0  0  0  0  0
   -7.9020   -9.5910   11.7256 C   0  0  0  0  0  0  0  0  0  0  0  0
  1  2  1  0
  2  3  1  0
  3  4  2  0
  3  5  1  0
  5  6  2  0
  5 10  1  0
  6  7  1  0
  7  8  2  0
  8  9  1  0
  8 12  1  0
  9 10  2  0
  9 11  1  0
 12 13  1  0
M  END
>  <Gold.Gold.Protein.RotatedWaterAtoms>  (395) 


>  <Gold.Id.Protein>  (395) 


>  <Gold.PLP.Chemscore.CHOScore>  (395) 
0.0000

>  <Gold.PLP.Chemscore.Hbond>  (395) 
1.0000

>  <Gold.PLP.Chemscore.Internal.Correction>  (395) 
0.0000

>  <Gold.PLP.Chemscore.Metal>  (395) 
0.0000

>  <Gold.PLP.Fitness>  (395) 
43.9775

>  <Gold.PLP.PLP>  (395) 
-41.0517

>  <Gold.PLP.ligand.clash>  (395) 
0.0000

>  <Gold.PLP.ligand.torsion>  (395) 
0.0371

>  <Gold.PLP.part.buried>  (395) 
-3.7367

>  <Gold.PLP.part.hbond>  (395) 
-1.0000

>  <Gold.PLP.part.metal>  (395) 
0.0000

>  <Gold.PLP.part.nonpolar>  (395) 
-36.7483

>  <Gold.PLP.part.repulsive>  (395) 
0.4054

>  <Gold.Protein.RotatedAtoms>  (395) 


>  <Gold.Protein.RotatedTorsions>  (395) 


>  <Gold.Protein.RotatedWaterAtoms>  (395) 


>  <Gold.Version>  (395) 
5.3.0

>  <PLP.Chemscore.CHOScore>  (395) 


>  <PLP.Chemscore.Hbond>  (395) 


>  <PLP.Chemscore.Internal.Correction>  (395) 


>  <PLP.Chemscore.Metal>  (395) 


>  <PLP.Fitness>  (395) 


>  <PLP.PLP>  (395) 


>  <PLP.ligand.clash>  (395) 


>  <PLP.ligand.torsion>  (395) 


>  <PLP.part.buried>  (395) 


>  <PLP.part.hbond>  (395) 


>  <PLP.part.metal>  (395) 


>  <PLP.part.nonpolar>  (395) 


>  <PLP.part.repulsive>  (395) 


>  <RMSD>  (395) 
0.319376411377

>  <Torsion>  (395) 
169.460450784

>  <TorsionO>  (395) 
9.7963905484

>  <TorsionR>  (395) 
179.256841332

>  <Version>  (395) 


>  <product>  (395) 
97|Compound_41|Compounds_3D_F|sdf|16|dock1|1

>  <rmsd>  (395) 
-1

$$$$
128|137677_56|Aromatic_carboxylic_acids_F|sdf|33|dock1|1
     RDKit          3D

 11 11  0  0  0  0  0  0  0  0999 V2000
   -8.6116  -16.1544   11.8887 C   0  0  0  0  0  0  0  0  0  0  0  0
   -7.9978  -14.8484   11.9215 N   0  0  0  0  0  0  0  0  0  0  0  0
   -8.7778  -13.7008   11.8756 C   0  0  0  0  0  0  0  0  0  0  0  0
  -10.0002  -13.7896   11.8139 O   0  0  0  0  0  0  0  0  0  0  0  0
   -8.0808  -12.3609   11.9017 C   0  0  0  0  0  0  0  0  0  0  0  0
   -8.7916  -11.1851   11.5813 C   0  0  0  0  0  0  0  0  0  0  0  0
   -8.1781   -9.9267   11.5989 C   0  0  0  0  0  0  0  0  0  0  0  0
   -6.8391   -9.8089   11.9369 C   0  0  0  0  0  0  0  0  0  0  0  0
   -6.1124  -10.9502   12.2575 C   0  0  0  0  0  0  0  0  0  0  0  0
   -6.7171  -12.2196   12.2428 C   0  0  0  0  0  0  0  0  0  0  0  0
   -5.5419  -13.6455   12.7121 Br  0  0  0  0  0  0  0  0  0  0  0  0
  1  2  1  0
  2  3  1  0
  3  4  2  0
  3  5  1  0
  5  6  2  0
  5 10  1  0
  6  7  1  0
  7  8  2  0
  8  9  1  0
  9 10  2  0
 10 11  1  0
M  END
>  <Gold.Gold.Protein.RotatedWaterAtoms>  (396) 


>  <Gold.Id.Protein>  (396) 


>  <Gold.PLP.Chemscore.CHOScore>  (396) 
0.0000

>  <Gold.PLP.Chemscore.Hbond>  (396) 
1.0000

>  <Gold.PLP.Chemscore.Internal.Correction>  (396) 
0.0000

>  <Gold.PLP.Chemscore.Metal>  (396) 
0.0000

>  <Gold.PLP.Fitness>  (396) 
45.2899

>  <Gold.PLP.PLP>  (396) 
-42.4444

>  <Gold.PLP.ligand.clash>  (396) 
0.0000

>  <Gold.PLP.ligand.torsion>  (396) 
0.0772

>  <Gold.PLP.part.buried>  (396) 
-6.4690

>  <Gold.PLP.part.hbond>  (396) 
-0.6863

>  <Gold.PLP.part.metal>  (396) 
0.0000

>  <Gold.PLP.part.nonpolar>  (396) 
-34.8280

>  <Gold.PLP.part.repulsive>  (396) 
0.1963

>  <Gold.Protein.RotatedAtoms>  (396) 


>  <Gold.Protein.RotatedTorsions>  (396) 


>  <Gold.Protein.RotatedWaterAtoms>  (396) 


>  <Gold.Version>  (396) 
5.3.0

>  <PLP.Chemscore.CHOScore>  (396) 


>  <PLP.Chemscore.Hbond>  (396) 


>  <PLP.Chemscore.Internal.Correction>  (396) 


>  <PLP.Chemscore.Metal>  (396) 


>  <PLP.Fitness>  (396) 


>  <PLP.PLP>  (396) 


>  <PLP.ligand.clash>  (396) 


>  <PLP.ligand.torsion>  (396) 


>  <PLP.part.buried>  (396) 


>  <PLP.part.hbond>  (396) 


>  <PLP.part.metal>  (396) 


>  <PLP.part.nonpolar>  (396) 


>  <PLP.part.repulsive>  (396) 


>  <RMSD>  (396) 
0.428070490903

>  <Torsion>  (396) 
152.444048788

>  <TorsionO>  (396) 
39.0580871276

>  <TorsionR>  (396) 
168.497864085

>  <Version>  (396) 


>  <product>  (396) 
97|Compound_41|Compounds_3D_F|sdf|16|dock1|1

>  <rmsd>  (396) 
-1

$$$$
974|750794_1404|Aromatic_primary_amines_F|sdf|194|dock3|1
     RDKit          3D

 14 14  0  0  0  0  0  0  0  0999 V2000
  -13.6355  -18.1936    9.4145 C   0  0  0  0  0  0  0  0  0  0  0  0
  -13.2544  -19.4497   10.1732 C   0  0  0  0  0  0  0  0  0  0  0  0
  -11.8731  -19.3506   10.5383 O   0  0  0  0  0  0  0  0  0  0  0  0
  -11.6148  -18.5085   11.5823 C   0  0  0  0  0  0  0  0  0  0  0  0
  -12.3947  -18.2810   12.5004 O   0  0  0  0  0  0  0  0  0  0  0  0
  -10.3031  -17.8985   11.4902 C   0  0  0  0  0  0  0  0  0  0  0  0
   -9.1673  -18.4974   10.9931 C   0  0  0  0  0  0  0  0  0  0  0  0
   -8.1448  -17.6055   11.0758 O   0  0  0  0  0  0  0  0  0  0  0  0
   -8.7110  -16.4917   11.6237 C   0  0  0  0  0  0  0  0  0  0  0  0
   -9.9933  -16.6110   11.8915 N   0  0  0  0  0  0  0  0  0  0  0  0
   -7.9611  -15.3718   11.8549 N   0  0  0  0  0  0  0  0  0  0  0  0
   -8.5046  -14.1249   12.0676 C   0  0  0  0  0  0  0  0  0  0  0  0
   -9.6950  -13.8313   12.1035 O   0  0  0  0  0  0  0  0  0  0  0  0
   -7.4448  -13.0785   12.3021 C   0  0  0  0  0  0  0  0  0  0  0  0
  1  2  1  0
  2  3  1  0
  3  4  1  0
  4  5  2  0
  4  6  1  0
  6  7  2  0
  6 10  1  0
  7  8  1  0
  8  9  1  0
  9 10  2  0
  9 11  1  0
 11 12  1  0
 12 13  2  0
 12 14  1  0
M  END
>  <Gold.Gold.Protein.RotatedWaterAtoms>  (397) 


>  <Gold.Id.Protein>  (397) 


>  <Gold.PLP.Chemscore.CHOScore>  (397) 
0.0000

>  <Gold.PLP.Chemscore.Hbond>  (397) 
2.0000

>  <Gold.PLP.Chemscore.Internal.Correction>  (397) 
0.0053

>  <Gold.PLP.Chemscore.Metal>  (397) 
0.0000

>  <Gold.PLP.Fitness>  (397) 
36.8047

>  <Gold.PLP.PLP>  (397) 
-32.7996

>  <Gold.PLP.ligand.clash>  (397) 
0.0000

>  <Gold.PLP.ligand.torsion>  (397) 
1.0001

>  <Gold.PLP.part.buried>  (397) 
-6.5206

>  <Gold.PLP.part.hbond>  (397) 
-2.9156

>  <Gold.PLP.part.metal>  (397) 
0.0000

>  <Gold.PLP.part.nonpolar>  (397) 
-23.4080

>  <Gold.PLP.part.repulsive>  (397) 
0.3100

>  <Gold.Protein.RotatedAtoms>  (397) 


>  <Gold.Protein.RotatedTorsions>  (397) 


>  <Gold.Protein.RotatedWaterAtoms>  (397) 


>  <Gold.Version>  (397) 
5.3.0

>  <PLP.Chemscore.CHOScore>  (397) 


>  <PLP.Chemscore.Hbond>  (397) 


>  <PLP.Chemscore.Internal.Correction>  (397) 


>  <PLP.Chemscore.Metal>  (397) 


>  <PLP.Fitness>  (397) 


>  <PLP.PLP>  (397) 


>  <PLP.ligand.clash>  (397) 


>  <PLP.ligand.torsion>  (397) 


>  <PLP.part.buried>  (397) 


>  <PLP.part.hbond>  (397) 


>  <PLP.part.metal>  (397) 


>  <PLP.part.nonpolar>  (397) 


>  <PLP.part.repulsive>  (397) 


>  <RMSD>  (397) 
0.499949349045

>  <Torsion>  (397) 
159.973716791

>  <TorsionO>  (397) 
19.1052109979

>  <TorsionR>  (397) 
179.078927789

>  <Version>  (397) 


>  <product>  (397) 
97|Compound_41|Compounds_3D_F|sdf|16|dock1|1

>  <rmsd>  (397) 
-1

$$$$
1884|M3006_1781|Aromatic_primary_amines_F|sdf|361|dock3|1
     RDKit          3D

 31 34  0  0  0  0  0  0  0  0999 V2000
  -14.4210  -19.8971    8.7934 C   0  0  0  0  0  0  0  0  0  0  0  0
  -13.9762  -19.4927   10.1894 C   0  0  0  0  0  0  0  0  0  0  0  0
  -14.1356  -20.6409   11.1817 C   0  0  0  0  0  0  0  0  0  0  0  0
  -13.5197  -20.3070   12.5189 C   0  0  0  0  0  0  0  0  0  0  0  0
  -12.9307  -19.2724   12.7954 O   0  0  0  0  0  0  0  0  0  0  0  0
  -13.7110  -21.3451   13.3845 O   0  0  0  0  0  0  0  0  0  0  0  0
  -12.9425  -21.2698   14.5900 C   0  0  0  0  0  0  0  0  0  0  0  0
  -12.8849  -22.6189   15.2889 C   0  0  0  0  0  0  0  0  0  0  0  0
  -11.6552  -22.4172   16.1494 C   0  0  0  0  0  0  0  0  0  0  0  0
  -11.2420  -23.7410   16.7624 C   0  0  0  0  0  0  0  0  0  0  0  0
  -12.3024  -24.2223   17.5862 O   0  0  0  0  0  0  0  0  0  0  0  0
  -13.7888  -24.3384   16.9603 P   0  0  0  0  0  0  0  0  0  0  0  0
  -14.8775  -24.6795   17.9243 O   0  0  0  0  0  0  0  0  0  0  0  0
  -13.9839  -22.9641   16.1174 O   0  0  0  0  0  0  0  0  0  0  0  0
  -13.5991  -25.4435   15.8075 O   0  0  0  0  0  0  0  0  0  0  0  0
  -10.6922  -21.8161   15.2889 O   0  0  0  0  0  0  0  0  0  0  0  0
  -11.4338  -20.9664   14.3653 C   0  0  0  0  0  0  0  0  0  0  0  0
  -10.9052  -21.2017   13.0342 N   0  0  0  0  0  0  0  0  0  0  0  0
  -10.7814  -22.4114   12.4013 C   0  0  0  0  0  0  0  0  0  0  0  0
  -10.2640  -22.2918   11.1953 N   0  0  0  0  0  0  0  0  0  0  0  0
  -10.0274  -20.9476   11.0424 C   0  0  0  0  0  0  0  0  0  0  0  0
  -10.4203  -20.2487   12.1733 C   0  0  0  0  0  0  0  0  0  0  0  0
  -10.3338  -18.9216   12.3641 N   0  0  0  0  0  0  0  0  0  0  0  0
   -9.8057  -18.2730   11.3024 C   0  0  0  0  0  0  0  0  0  0  0  0
   -9.3808  -18.8370   10.1545 N   0  0  0  0  0  0  0  0  0  0  0  0
   -9.4895  -20.1691   10.0244 C   0  0  0  0  0  0  0  0  0  0  0  0
   -9.0330  -20.6622    8.8349 O   0  0  0  0  0  0  0  0  0  0  0  0
   -9.7222  -16.8901   11.4793 N   0  0  0  0  0  0  0  0  0  0  0  0
   -8.5796  -16.1798   11.7761 C   0  0  0  0  0  0  0  0  0  0  0  0
   -7.4445  -16.6221   11.9131 O   0  0  0  0  0  0  0  0  0  0  0  0
   -8.8524  -14.7024   11.8973 C   0  0  0  0  0  0  0  0  0  0  0  0
  1  2  1  0
  2  3  1  0
  3  4  1  0
  4  5  2  0
  4  6  1  0
  6  7  1  0
  7  8  1  0
  7 17  1  0
  8  9  1  0
  8 14  1  0
  9 10  1  0
  9 16  1  0
 10 11  1  0
 11 12  1  0
 12 13  2  0
 12 14  1  0
 12 15  1  0
 16 17  1  0
 17 18  1  0
 18 19  1  0
 18 22  1  0
 19 20  2  0
 20 21  1  0
 21 22  2  0
 21 26  1  0
 22 23  1  0
 23 24  2  0
 24 25  1  0
 24 28  1  0
 25 26  2  0
 26 27  1  0
 28 29  1  0
 29 30  2  0
 29 31  1  0
M  END
>  <Gold.Gold.Protein.RotatedWaterAtoms>  (398) 


>  <Gold.Id.Protein>  (398) 


>  <Gold.PLP.Chemscore.CHOScore>  (398) 
0.0000

>  <Gold.PLP.Chemscore.Hbond>  (398) 
1.2080

>  <Gold.PLP.Chemscore.Internal.Correction>  (398) 
0.1232

>  <Gold.PLP.Chemscore.Metal>  (398) 
0.0000

>  <Gold.PLP.Fitness>  (398) 
47.7145

>  <Gold.PLP.PLP>  (398) 
-46.0218

>  <Gold.PLP.ligand.clash>  (398) 
0.0000

>  <Gold.PLP.ligand.torsion>  (398) 
1.0272

>  <Gold.PLP.part.buried>  (398) 
-2.2958

>  <Gold.PLP.part.hbond>  (398) 
-4.0214

>  <Gold.PLP.part.metal>  (398) 
0.0000

>  <Gold.PLP.part.nonpolar>  (398) 
-41.4699

>  <Gold.PLP.part.repulsive>  (398) 
0.9524

>  <Gold.Protein.RotatedAtoms>  (398) 


>  <Gold.Protein.RotatedTorsions>  (398) 


>  <Gold.Protein.RotatedWaterAtoms>  (398) 


>  <Gold.Version>  (398) 
5.3.0

>  <PLP.Chemscore.CHOScore>  (398) 


>  <PLP.Chemscore.Hbond>  (398) 


>  <PLP.Chemscore.Internal.Correction>  (398) 


>  <PLP.Chemscore.Metal>  (398) 


>  <PLP.Fitness>  (398) 


>  <PLP.PLP>  (398) 


>  <PLP.ligand.clash>  (398) 


>  <PLP.ligand.torsion>  (398) 


>  <PLP.part.buried>  (398) 


>  <PLP.part.hbond>  (398) 


>  <PLP.part.metal>  (398) 


>  <PLP.part.nonpolar>  (398) 


>  <PLP.part.repulsive>  (398) 


>  <RMSD>  (398) 
0.291955871297

>  <Torsion>  (398) 
171.923704933

>  <TorsionO>  (398) 
6.03609353985

>  <TorsionR>  (398) 
177.959798473

>  <Version>  (398) 


>  <product>  (398) 
97|Compound_41|Compounds_3D_F|sdf|16|dock1|1

>  <rmsd>  (398) 
-1

$$$$
193|32168_281|Aromatic_primary_amines_F|sdf|39|dock6|1
     RDKit          3D

 23 25  0  0  0  0  0  0  0  0999 V2000
   -7.8439  -12.1461   11.8919 C   0  0  0  0  0  0  0  0  0  0  0  0
   -8.5691  -13.4472   11.6781 C   0  0  0  0  0  0  0  0  0  0  0  0
   -9.7886  -13.4981   11.5208 O   0  0  0  0  0  0  0  0  0  0  0  0
   -7.7264  -14.5390   11.7020 N   0  0  0  0  0  0  0  0  0  0  0  0
   -8.1889  -15.8197   11.5323 C   0  0  0  0  0  0  0  0  0  0  0  0
   -9.4747  -16.2039   11.8163 N   0  0  0  0  0  0  0  0  0  0  0  0
   -9.5964  -17.5375   11.5379 C   0  0  0  0  0  0  0  0  0  0  0  0
  -10.6643  -18.4283   11.6415 C   0  0  0  0  0  0  0  0  0  0  0  0
  -10.4051  -19.7586   11.2778 C   0  0  0  0  0  0  0  0  0  0  0  0
   -9.1530  -20.1507   10.7795 C   0  0  0  0  0  0  0  0  0  0  0  0
   -8.1017  -19.2294   10.6839 C   0  0  0  0  0  0  0  0  0  0  0  0
   -8.3349  -17.9032   11.0783 C   0  0  0  0  0  0  0  0  0  0  0  0
   -7.4773  -16.8281   11.0838 N   0  0  0  0  0  0  0  0  0  0  0  0
   -8.8530  -21.7658   10.2429 Cl  0  0  0  0  0  0  0  0  0  0  0  0
  -11.4669  -20.6323   11.3734 O   0  0  0  0  0  0  0  0  0  0  0  0
  -12.5262  -20.4408   10.5053 C   0  0  0  0  0  0  0  0  0  0  0  0
  -13.3188  -19.2846   10.5304 C   0  0  0  0  0  0  0  0  0  0  0  0
  -14.3665  -19.1344    9.6224 C   0  0  0  0  0  0  0  0  0  0  0  0
  -14.6219  -20.1279    8.6796 C   0  0  0  0  0  0  0  0  0  0  0  0
  -13.8238  -21.2756    8.6345 C   0  0  0  0  0  0  0  0  0  0  0  0
  -12.7674  -21.4342    9.5416 C   0  0  0  0  0  0  0  0  0  0  0  0
  -11.7588  -22.8458    9.4996 Cl  0  0  0  0  0  0  0  0  0  0  0  0
  -14.1988  -22.4584    7.4296 Cl  0  0  0  0  0  0  0  0  0  0  0  0
  1  2  1  0
  2  3  2  0
  2  4  1  0
  4  5  1  0
  5  6  1  0
  5 13  2  0
  6  7  1  0
  7  8  2  0
  7 12  1  0
  8  9  1  0
  9 10  2  0
  9 15  1  0
 10 11  1  0
 10 14  1  0
 11 12  2  0
 12 13  1  0
 15 16  1  0
 16 17  2  0
 16 21  1  0
 17 18  1  0
 18 19  2  0
 19 20  1  0
 20 21  2  0
 20 23  1  0
 21 22  1  0
M  END
>  <Gold.Gold.Protein.RotatedWaterAtoms>  (399) 


>  <Gold.Id.Protein>  (399) 


>  <Gold.PLP.Chemscore.CHOScore>  (399) 
0.0000

>  <Gold.PLP.Chemscore.Hbond>  (399) 
1.0000

>  <Gold.PLP.Chemscore.Internal.Correction>  (399) 
0.0086

>  <Gold.PLP.Chemscore.Metal>  (399) 
0.0000

>  <Gold.PLP.Fitness>  (399) 
50.7139

>  <Gold.PLP.PLP>  (399) 
-48.1706

>  <Gold.PLP.ligand.clash>  (399) 
0.0000

>  <Gold.PLP.ligand.torsion>  (399) 
0.2327

>  <Gold.PLP.part.buried>  (399) 
-6.5205

>  <Gold.PLP.part.hbond>  (399) 
-2.0000

>  <Gold.PLP.part.metal>  (399) 
0.0000

>  <Gold.PLP.part.nonpolar>  (399) 
-39.3857

>  <Gold.PLP.part.repulsive>  (399) 
0.3298

>  <Gold.Protein.RotatedAtoms>  (399) 


>  <Gold.Protein.RotatedTorsions>  (399) 


>  <Gold.Protein.RotatedWaterAtoms>  (399) 


>  <Gold.Version>  (399) 
5.3.0

>  <PLP.Chemscore.CHOScore>  (399) 


>  <PLP.Chemscore.Hbond>  (399) 


>  <PLP.Chemscore.Internal.Correction>  (399) 


>  <PLP.Chemscore.Metal>  (399) 


>  <PLP.Fitness>  (399) 


>  <PLP.PLP>  (399) 


>  <PLP.ligand.clash>  (399) 


>  <PLP.ligand.torsion>  (399) 


>  <PLP.part.buried>  (399) 


>  <PLP.part.hbond>  (399) 


>  <PLP.part.metal>  (399) 


>  <PLP.part.nonpolar>  (399) 


>  <PLP.part.repulsive>  (399) 


>  <RMSD>  (399) 
0.439733510035

>  <Torsion>  (399) 
177.672185574

>  <TorsionO>  (399) 
4.31728583372

>  <TorsionR>  (399) 
173.35489974

>  <Version>  (399) 


>  <product>  (399) 
97|Compound_41|Compounds_3D_F|sdf|16|dock1|1

>  <rmsd>  (399) 
-1

$$$$
38|Compound_21|Compounds_3D_F|sdf|8|dock1|1
     RDKit          3D

 10  9  0  0  0  0  0  0  0  0999 V2000
   -4.8426  -13.8083   12.2084 O   0  0  0  0  0  0  0  0  0  0  0  0
   -6.2685  -13.8834   12.2575 C   0  0  0  0  0  0  0  0  0  0  0  0
   -6.7502  -15.0301   11.3673 C   0  0  0  0  0  0  0  0  0  0  0  0
   -5.8665  -15.1512   10.2057 N   0  0  0  0  0  0  0  0  0  0  0  0
   -6.1375  -16.0556    9.2438 C   0  0  0  0  0  0  0  0  0  0  0  0
   -7.1132  -16.7693    9.3405 O   0  0  0  0  0  0  0  0  0  0  0  0
   -5.1901  -16.1855    7.9983 B   0  0  0  0  0  0  0  0  0  0  0  0
   -6.7290  -16.3368   12.1626 C   0  0  0  0  0  0  0  0  0  0  0  0
   -8.1775  -14.7438   10.8953 C   0  0  0  0  0  0  0  0  0  0  0  0
   -9.0704  -14.8087   12.0091 O   0  0  0  0  0  0  0  0  0  0  0  0
  1  2  1  0
  2  3  1  0
  3  4  1  0
  3  8  1  0
  3  9  1  0
  4  5  1  0
  5  6  2  0
  5  7  1  0
  9 10  1  0
M  END
>  <Gold.Gold.Protein.RotatedWaterAtoms>  (400) 


>  <Gold.Id.Protein>  (400) 


>  <Gold.PLP.Chemscore.CHOScore>  (400) 
0.0000

>  <Gold.PLP.Chemscore.Hbond>  (400) 
2.9825

>  <Gold.PLP.Chemscore.Internal.Correction>  (400) 
0.0029

>  <Gold.PLP.Chemscore.Metal>  (400) 
0.0000

>  <Gold.PLP.Fitness>  (400) 
31.3290

>  <Gold.PLP.PLP>  (400) 
-23.3998

>  <Gold.PLP.ligand.clash>  (400) 
0.0000

>  <Gold.PLP.ligand.torsion>  (400) 
0.5106

>  <Gold.PLP.part.buried>  (400) 
-4.8321

>  <Gold.PLP.part.hbond>  (400) 
-4.0000

>  <Gold.PLP.part.metal>  (400) 
0.0000

>  <Gold.PLP.part.nonpolar>  (400) 
-14.6412

>  <Gold.PLP.part.repulsive>  (400) 
0.1101

>  <Gold.Protein.RotatedAtoms>  (400) 


>  <Gold.Protein.RotatedTorsions>  (400) 


>  <Gold.Protein.RotatedWaterAtoms>  (400) 


>  <Gold.Version>  (400) 
5.3.0

>  <PLP.Chemscore.CHOScore>  (400) 


>  <PLP.Chemscore.Hbond>  (400) 


>  <PLP.Chemscore.Internal.Correction>  (400) 


>  <PLP.Chemscore.Metal>  (400) 


>  <PLP.Fitness>  (400) 


>  <PLP.PLP>  (400) 


>  <PLP.ligand.clash>  (400) 


>  <PLP.ligand.torsion>  (400) 


>  <PLP.part.buried>  (400) 


>  <PLP.part.hbond>  (400) 


>  <PLP.part.metal>  (400) 


>  <PLP.part.nonpolar>  (400) 


>  <PLP.part.repulsive>  (400) 


>  <Version>  (400) 


$$$$
94|664022_40|Aromatic_carboxylic_acids_F|sdf|24|dock1|1
     RDKit          3D

 12 12  0  0  0  0  0  0  0  0999 V2000
   -8.2596  -17.1212   11.4595 C   0  0  0  0  0  0  0  0  0  0  0  0
   -7.6366  -15.8367   11.6688 N   0  0  0  0  0  0  0  0  0  0  0  0
   -8.3409  -14.6553   11.5719 C   0  0  0  0  0  0  0  0  0  0  0  0
   -9.5296  -14.5547   11.2978 O   0  0  0  0  0  0  0  0  0  0  0  0
   -7.5420  -13.4431   11.8503 C   0  0  0  0  0  0  0  0  0  0  0  0
   -8.1627  -12.1983   11.6738 C   0  0  0  0  0  0  0  0  0  0  0  0
   -7.4390  -11.0301   11.9055 C   0  0  0  0  0  0  0  0  0  0  0  0
   -6.1069  -11.0910   12.3103 C   0  0  0  0  0  0  0  0  0  0  0  0
   -5.4897  -12.3324   12.4853 C   0  0  0  0  0  0  0  0  0  0  0  0
   -6.2035  -13.5136   12.2549 C   0  0  0  0  0  0  0  0  0  0  0  0
   -5.3062  -15.1564   12.5638 Br  0  0  0  0  0  0  0  0  0  0  0  0
   -8.1960   -9.5005   11.6887 Cl  0  0  0  0  0  0  0  0  0  0  0  0
  1  2  1  0
  2  3  1  0
  3  4  2  0
  3  5  1  0
  5  6  2  0
  5 10  1  0
  6  7  1  0
  7  8  2  0
  7 12  1  0
  8  9  1  0
  9 10  2  0
 10 11  1  0
M  END
>  <Gold.Gold.Protein.RotatedWaterAtoms>  (401) 


>  <Gold.Id.Protein>  (401) 


>  <Gold.PLP.Chemscore.CHOScore>  (401) 
0.0000

>  <Gold.PLP.Chemscore.Hbond>  (401) 
0.4160

>  <Gold.PLP.Chemscore.Internal.Correction>  (401) 
0.0004

>  <Gold.PLP.Chemscore.Metal>  (401) 
0.0000

>  <Gold.PLP.Fitness>  (401) 
48.9046

>  <Gold.PLP.PLP>  (401) 
-47.6744

>  <Gold.PLP.ligand.clash>  (401) 
0.0000

>  <Gold.PLP.ligand.torsion>  (401) 
0.0091

>  <Gold.PLP.part.buried>  (401) 
-7.3578

>  <Gold.PLP.part.hbond>  (401) 
-0.5127

>  <Gold.PLP.part.metal>  (401) 
0.0000

>  <Gold.PLP.part.nonpolar>  (401) 
-40.3098

>  <Gold.PLP.part.repulsive>  (401) 
0.1684

>  <Gold.Protein.RotatedAtoms>  (401) 


>  <Gold.Protein.RotatedTorsions>  (401) 


>  <Gold.Protein.RotatedWaterAtoms>  (401) 


>  <Gold.Version>  (401) 
5.3.0

>  <PLP.Chemscore.CHOScore>  (401) 


>  <PLP.Chemscore.Hbond>  (401) 


>  <PLP.Chemscore.Internal.Correction>  (401) 


>  <PLP.Chemscore.Metal>  (401) 


>  <PLP.Fitness>  (401) 


>  <PLP.PLP>  (401) 


>  <PLP.ligand.clash>  (401) 


>  <PLP.ligand.torsion>  (401) 


>  <PLP.part.buried>  (401) 


>  <PLP.part.hbond>  (401) 


>  <PLP.part.metal>  (401) 


>  <PLP.part.nonpolar>  (401) 


>  <PLP.part.repulsive>  (401) 


>  <RMSD>  (401) 
0.30972197429

>  <Torsion>  (401) 
172.929186758

>  <TorsionO>  (401) 
24.4968065243

>  <TorsionR>  (401) 
162.574006718

>  <Version>  (401) 


>  <product>  (401) 
38|Compound_21|Compounds_3D_F|sdf|8|dock1|1

>  <rmsd>  (401) 
-1

$$$$
110|565385_49|Aromatic_carboxylic_acids_F|sdf|29|dock1|1
     RDKit          3D

 13 13  0  0  0  0  0  0  0  0999 V2000
  -10.1118  -17.9021   11.6320 C   0  0  0  0  0  0  0  0  0  0  0  0
   -9.7537  -16.5043   11.6546 N   0  0  0  0  0  0  0  0  0  0  0  0
   -8.4330  -16.1187   11.7930 C   0  0  0  0  0  0  0  0  0  0  0  0
   -7.5159  -16.9298   11.9008 O   0  0  0  0  0  0  0  0  0  0  0  0
   -8.1234  -14.6552   11.8105 C   0  0  0  0  0  0  0  0  0  0  0  0
   -9.0636  -13.6551   11.5375 C   0  0  0  0  0  0  0  0  0  0  0  0
   -8.6966  -12.3009   11.5726 C   0  0  0  0  0  0  0  0  0  0  0  0
   -7.3879  -11.9195   11.8809 C   0  0  0  0  0  0  0  0  0  0  0  0
   -6.4486  -12.9235   12.1551 C   0  0  0  0  0  0  0  0  0  0  0  0
   -6.8098  -14.2750   12.1207 C   0  0  0  0  0  0  0  0  0  0  0  0
   -4.6444  -12.5025   12.5849 Br  0  0  0  0  0  0  0  0  0  0  0  0
   -6.9476  -10.6242   11.9372 O   0  0  0  0  0  0  0  0  0  0  0  0
   -7.9020   -9.5910   11.7256 C   0  0  0  0  0  0  0  0  0  0  0  0
  1  2  1  0
  2  3  1  0
  3  4  2  0
  3  5  1  0
  5  6  2  0
  5 10  1  0
  6  7  1  0
  7  8  2  0
  8  9  1  0
  8 12  1  0
  9 10  2  0
  9 11  1  0
 12 13  1  0
M  END
>  <Gold.Gold.Protein.RotatedWaterAtoms>  (402) 


>  <Gold.Id.Protein>  (402) 


>  <Gold.PLP.Chemscore.CHOScore>  (402) 
0.0000

>  <Gold.PLP.Chemscore.Hbond>  (402) 
1.0000

>  <Gold.PLP.Chemscore.Internal.Correction>  (402) 
0.0000

>  <Gold.PLP.Chemscore.Metal>  (402) 
0.0000

>  <Gold.PLP.Fitness>  (402) 
43.9775

>  <Gold.PLP.PLP>  (402) 
-41.0517

>  <Gold.PLP.ligand.clash>  (402) 
0.0000

>  <Gold.PLP.ligand.torsion>  (402) 
0.0371

>  <Gold.PLP.part.buried>  (402) 
-3.7367

>  <Gold.PLP.part.hbond>  (402) 
-1.0000

>  <Gold.PLP.part.metal>  (402) 
0.0000

>  <Gold.PLP.part.nonpolar>  (402) 
-36.7483

>  <Gold.PLP.part.repulsive>  (402) 
0.4054

>  <Gold.Protein.RotatedAtoms>  (402) 


>  <Gold.Protein.RotatedTorsions>  (402) 


>  <Gold.Protein.RotatedWaterAtoms>  (402) 


>  <Gold.Version>  (402) 
5.3.0

>  <PLP.Chemscore.CHOScore>  (402) 


>  <PLP.Chemscore.Hbond>  (402) 


>  <PLP.Chemscore.Internal.Correction>  (402) 


>  <PLP.Chemscore.Metal>  (402) 


>  <PLP.Fitness>  (402) 


>  <PLP.PLP>  (402) 


>  <PLP.ligand.clash>  (402) 


>  <PLP.ligand.torsion>  (402) 


>  <PLP.part.buried>  (402) 


>  <PLP.part.hbond>  (402) 


>  <PLP.part.metal>  (402) 


>  <PLP.part.nonpolar>  (402) 


>  <PLP.part.repulsive>  (402) 


>  <RMSD>  (402) 
0.319376411377

>  <Torsion>  (402) 
169.460450784

>  <TorsionO>  (402) 
9.7963905484

>  <TorsionR>  (402) 
179.256841332

>  <Version>  (402) 


>  <product>  (402) 
38|Compound_21|Compounds_3D_F|sdf|8|dock1|1

>  <rmsd>  (402) 
-1

$$$$
128|137677_56|Aromatic_carboxylic_acids_F|sdf|33|dock1|1
     RDKit          3D

 11 11  0  0  0  0  0  0  0  0999 V2000
   -8.6116  -16.1544   11.8887 C   0  0  0  0  0  0  0  0  0  0  0  0
   -7.9978  -14.8484   11.9215 N   0  0  0  0  0  0  0  0  0  0  0  0
   -8.7778  -13.7008   11.8756 C   0  0  0  0  0  0  0  0  0  0  0  0
  -10.0002  -13.7896   11.8139 O   0  0  0  0  0  0  0  0  0  0  0  0
   -8.0808  -12.3609   11.9017 C   0  0  0  0  0  0  0  0  0  0  0  0
   -8.7916  -11.1851   11.5813 C   0  0  0  0  0  0  0  0  0  0  0  0
   -8.1781   -9.9267   11.5989 C   0  0  0  0  0  0  0  0  0  0  0  0
   -6.8391   -9.8089   11.9369 C   0  0  0  0  0  0  0  0  0  0  0  0
   -6.1124  -10.9502   12.2575 C   0  0  0  0  0  0  0  0  0  0  0  0
   -6.7171  -12.2196   12.2428 C   0  0  0  0  0  0  0  0  0  0  0  0
   -5.5419  -13.6455   12.7121 Br  0  0  0  0  0  0  0  0  0  0  0  0
  1  2  1  0
  2  3  1  0
  3  4  2  0
  3  5  1  0
  5  6  2  0
  5 10  1  0
  6  7  1  0
  7  8  2  0
  8  9  1  0
  9 10  2  0
 10 11  1  0
M  END
>  <Gold.Gold.Protein.RotatedWaterAtoms>  (403) 


>  <Gold.Id.Protein>  (403) 


>  <Gold.PLP.Chemscore.CHOScore>  (403) 
0.0000

>  <Gold.PLP.Chemscore.Hbond>  (403) 
1.0000

>  <Gold.PLP.Chemscore.Internal.Correction>  (403) 
0.0000

>  <Gold.PLP.Chemscore.Metal>  (403) 
0.0000

>  <Gold.PLP.Fitness>  (403) 
45.2899

>  <Gold.PLP.PLP>  (403) 
-42.4444

>  <Gold.PLP.ligand.clash>  (403) 
0.0000

>  <Gold.PLP.ligand.torsion>  (403) 
0.0772

>  <Gold.PLP.part.buried>  (403) 
-6.4690

>  <Gold.PLP.part.hbond>  (403) 
-0.6863

>  <Gold.PLP.part.metal>  (403) 
0.0000

>  <Gold.PLP.part.nonpolar>  (403) 
-34.8280

>  <Gold.PLP.part.repulsive>  (403) 
0.1963

>  <Gold.Protein.RotatedAtoms>  (403) 


>  <Gold.Protein.RotatedTorsions>  (403) 


>  <Gold.Protein.RotatedWaterAtoms>  (403) 


>  <Gold.Version>  (403) 
5.3.0

>  <PLP.Chemscore.CHOScore>  (403) 


>  <PLP.Chemscore.Hbond>  (403) 


>  <PLP.Chemscore.Internal.Correction>  (403) 


>  <PLP.Chemscore.Metal>  (403) 


>  <PLP.Fitness>  (403) 


>  <PLP.PLP>  (403) 


>  <PLP.ligand.clash>  (403) 


>  <PLP.ligand.torsion>  (403) 


>  <PLP.part.buried>  (403) 


>  <PLP.part.hbond>  (403) 


>  <PLP.part.metal>  (403) 


>  <PLP.part.nonpolar>  (403) 


>  <PLP.part.repulsive>  (403) 


>  <RMSD>  (403) 
0.428070490903

>  <Torsion>  (403) 
152.444048788

>  <TorsionO>  (403) 
39.0580871276

>  <TorsionR>  (403) 
168.497864085

>  <Version>  (403) 


>  <product>  (403) 
38|Compound_21|Compounds_3D_F|sdf|8|dock1|1

>  <rmsd>  (403) 
-1

$$$$
974|750794_1404|Aromatic_primary_amines_F|sdf|194|dock3|1
     RDKit          3D

 14 14  0  0  0  0  0  0  0  0999 V2000
  -13.6355  -18.1936    9.4145 C   0  0  0  0  0  0  0  0  0  0  0  0
  -13.2544  -19.4497   10.1732 C   0  0  0  0  0  0  0  0  0  0  0  0
  -11.8731  -19.3506   10.5383 O   0  0  0  0  0  0  0  0  0  0  0  0
  -11.6148  -18.5085   11.5823 C   0  0  0  0  0  0  0  0  0  0  0  0
  -12.3947  -18.2810   12.5004 O   0  0  0  0  0  0  0  0  0  0  0  0
  -10.3031  -17.8985   11.4902 C   0  0  0  0  0  0  0  0  0  0  0  0
   -9.1673  -18.4974   10.9931 C   0  0  0  0  0  0  0  0  0  0  0  0
   -8.1448  -17.6055   11.0758 O   0  0  0  0  0  0  0  0  0  0  0  0
   -8.7110  -16.4917   11.6237 C   0  0  0  0  0  0  0  0  0  0  0  0
   -9.9933  -16.6110   11.8915 N   0  0  0  0  0  0  0  0  0  0  0  0
   -7.9611  -15.3718   11.8549 N   0  0  0  0  0  0  0  0  0  0  0  0
   -8.5046  -14.1249   12.0676 C   0  0  0  0  0  0  0  0  0  0  0  0
   -9.6950  -13.8313   12.1035 O   0  0  0  0  0  0  0  0  0  0  0  0
   -7.4448  -13.0785   12.3021 C   0  0  0  0  0  0  0  0  0  0  0  0
  1  2  1  0
  2  3  1  0
  3  4  1  0
  4  5  2  0
  4  6  1  0
  6  7  2  0
  6 10  1  0
  7  8  1  0
  8  9  1  0
  9 10  2  0
  9 11  1  0
 11 12  1  0
 12 13  2  0
 12 14  1  0
M  END
>  <Gold.Gold.Protein.RotatedWaterAtoms>  (404) 


>  <Gold.Id.Protein>  (404) 


>  <Gold.PLP.Chemscore.CHOScore>  (404) 
0.0000

>  <Gold.PLP.Chemscore.Hbond>  (404) 
2.0000

>  <Gold.PLP.Chemscore.Internal.Correction>  (404) 
0.0053

>  <Gold.PLP.Chemscore.Metal>  (404) 
0.0000

>  <Gold.PLP.Fitness>  (404) 
36.8047

>  <Gold.PLP.PLP>  (404) 
-32.7996

>  <Gold.PLP.ligand.clash>  (404) 
0.0000

>  <Gold.PLP.ligand.torsion>  (404) 
1.0001

>  <Gold.PLP.part.buried>  (404) 
-6.5206

>  <Gold.PLP.part.hbond>  (404) 
-2.9156

>  <Gold.PLP.part.metal>  (404) 
0.0000

>  <Gold.PLP.part.nonpolar>  (404) 
-23.4080

>  <Gold.PLP.part.repulsive>  (404) 
0.3100

>  <Gold.Protein.RotatedAtoms>  (404) 


>  <Gold.Protein.RotatedTorsions>  (404) 


>  <Gold.Protein.RotatedWaterAtoms>  (404) 


>  <Gold.Version>  (404) 
5.3.0

>  <PLP.Chemscore.CHOScore>  (404) 


>  <PLP.Chemscore.Hbond>  (404) 


>  <PLP.Chemscore.Internal.Correction>  (404) 


>  <PLP.Chemscore.Metal>  (404) 


>  <PLP.Fitness>  (404) 


>  <PLP.PLP>  (404) 


>  <PLP.ligand.clash>  (404) 


>  <PLP.ligand.torsion>  (404) 


>  <PLP.part.buried>  (404) 


>  <PLP.part.hbond>  (404) 


>  <PLP.part.metal>  (404) 


>  <PLP.part.nonpolar>  (404) 


>  <PLP.part.repulsive>  (404) 


>  <RMSD>  (404) 
0.499949349045

>  <Torsion>  (404) 
159.973716791

>  <TorsionO>  (404) 
19.1052109979

>  <TorsionR>  (404) 
179.078927789

>  <Version>  (404) 


>  <product>  (404) 
38|Compound_21|Compounds_3D_F|sdf|8|dock1|1

>  <rmsd>  (404) 
-1

$$$$
1884|M3006_1781|Aromatic_primary_amines_F|sdf|361|dock3|1
     RDKit          3D

 31 34  0  0  0  0  0  0  0  0999 V2000
  -14.4210  -19.8971    8.7934 C   0  0  0  0  0  0  0  0  0  0  0  0
  -13.9762  -19.4927   10.1894 C   0  0  0  0  0  0  0  0  0  0  0  0
  -14.1356  -20.6409   11.1817 C   0  0  0  0  0  0  0  0  0  0  0  0
  -13.5197  -20.3070   12.5189 C   0  0  0  0  0  0  0  0  0  0  0  0
  -12.9307  -19.2724   12.7954 O   0  0  0  0  0  0  0  0  0  0  0  0
  -13.7110  -21.3451   13.3845 O   0  0  0  0  0  0  0  0  0  0  0  0
  -12.9425  -21.2698   14.5900 C   0  0  0  0  0  0  0  0  0  0  0  0
  -12.8849  -22.6189   15.2889 C   0  0  0  0  0  0  0  0  0  0  0  0
  -11.6552  -22.4172   16.1494 C   0  0  0  0  0  0  0  0  0  0  0  0
  -11.2420  -23.7410   16.7624 C   0  0  0  0  0  0  0  0  0  0  0  0
  -12.3024  -24.2223   17.5862 O   0  0  0  0  0  0  0  0  0  0  0  0
  -13.7888  -24.3384   16.9603 P   0  0  0  0  0  0  0  0  0  0  0  0
  -14.8775  -24.6795   17.9243 O   0  0  0  0  0  0  0  0  0  0  0  0
  -13.9839  -22.9641   16.1174 O   0  0  0  0  0  0  0  0  0  0  0  0
  -13.5991  -25.4435   15.8075 O   0  0  0  0  0  0  0  0  0  0  0  0
  -10.6922  -21.8161   15.2889 O   0  0  0  0  0  0  0  0  0  0  0  0
  -11.4338  -20.9664   14.3653 C   0  0  0  0  0  0  0  0  0  0  0  0
  -10.9052  -21.2017   13.0342 N   0  0  0  0  0  0  0  0  0  0  0  0
  -10.7814  -22.4114   12.4013 C   0  0  0  0  0  0  0  0  0  0  0  0
  -10.2640  -22.2918   11.1953 N   0  0  0  0  0  0  0  0  0  0  0  0
  -10.0274  -20.9476   11.0424 C   0  0  0  0  0  0  0  0  0  0  0  0
  -10.4203  -20.2487   12.1733 C   0  0  0  0  0  0  0  0  0  0  0  0
  -10.3338  -18.9216   12.3641 N   0  0  0  0  0  0  0  0  0  0  0  0
   -9.8057  -18.2730   11.3024 C   0  0  0  0  0  0  0  0  0  0  0  0
   -9.3808  -18.8370   10.1545 N   0  0  0  0  0  0  0  0  0  0  0  0
   -9.4895  -20.1691   10.0244 C   0  0  0  0  0  0  0  0  0  0  0  0
   -9.0330  -20.6622    8.8349 O   0  0  0  0  0  0  0  0  0  0  0  0
   -9.7222  -16.8901   11.4793 N   0  0  0  0  0  0  0  0  0  0  0  0
   -8.5796  -16.1798   11.7761 C   0  0  0  0  0  0  0  0  0  0  0  0
   -7.4445  -16.6221   11.9131 O   0  0  0  0  0  0  0  0  0  0  0  0
   -8.8524  -14.7024   11.8973 C   0  0  0  0  0  0  0  0  0  0  0  0
  1  2  1  0
  2  3  1  0
  3  4  1  0
  4  5  2  0
  4  6  1  0
  6  7  1  0
  7  8  1  0
  7 17  1  0
  8  9  1  0
  8 14  1  0
  9 10  1  0
  9 16  1  0
 10 11  1  0
 11 12  1  0
 12 13  2  0
 12 14  1  0
 12 15  1  0
 16 17  1  0
 17 18  1  0
 18 19  1  0
 18 22  1  0
 19 20  2  0
 20 21  1  0
 21 22  2  0
 21 26  1  0
 22 23  1  0
 23 24  2  0
 24 25  1  0
 24 28  1  0
 25 26  2  0
 26 27  1  0
 28 29  1  0
 29 30  2  0
 29 31  1  0
M  END
>  <Gold.Gold.Protein.RotatedWaterAtoms>  (405) 


>  <Gold.Id.Protein>  (405) 


>  <Gold.PLP.Chemscore.CHOScore>  (405) 
0.0000

>  <Gold.PLP.Chemscore.Hbond>  (405) 
1.2080

>  <Gold.PLP.Chemscore.Internal.Correction>  (405) 
0.1232

>  <Gold.PLP.Chemscore.Metal>  (405) 
0.0000

>  <Gold.PLP.Fitness>  (405) 
47.7145

>  <Gold.PLP.PLP>  (405) 
-46.0218

>  <Gold.PLP.ligand.clash>  (405) 
0.0000

>  <Gold.PLP.ligand.torsion>  (405) 
1.0272

>  <Gold.PLP.part.buried>  (405) 
-2.2958

>  <Gold.PLP.part.hbond>  (405) 
-4.0214

>  <Gold.PLP.part.metal>  (405) 
0.0000

>  <Gold.PLP.part.nonpolar>  (405) 
-41.4699

>  <Gold.PLP.part.repulsive>  (405) 
0.9524

>  <Gold.Protein.RotatedAtoms>  (405) 


>  <Gold.Protein.RotatedTorsions>  (405) 


>  <Gold.Protein.RotatedWaterAtoms>  (405) 


>  <Gold.Version>  (405) 
5.3.0

>  <PLP.Chemscore.CHOScore>  (405) 


>  <PLP.Chemscore.Hbond>  (405) 


>  <PLP.Chemscore.Internal.Correction>  (405) 


>  <PLP.Chemscore.Metal>  (405) 


>  <PLP.Fitness>  (405) 


>  <PLP.PLP>  (405) 


>  <PLP.ligand.clash>  (405) 


>  <PLP.ligand.torsion>  (405) 


>  <PLP.part.buried>  (405) 


>  <PLP.part.hbond>  (405) 


>  <PLP.part.metal>  (405) 


>  <PLP.part.nonpolar>  (405) 


>  <PLP.part.repulsive>  (405) 


>  <RMSD>  (405) 
0.291955871297

>  <Torsion>  (405) 
171.923704933

>  <TorsionO>  (405) 
6.03609353985

>  <TorsionR>  (405) 
177.959798473

>  <Version>  (405) 


>  <product>  (405) 
38|Compound_21|Compounds_3D_F|sdf|8|dock1|1

>  <rmsd>  (405) 
-1

$$$$
193|32168_281|Aromatic_primary_amines_F|sdf|39|dock6|1
     RDKit          3D

 23 25  0  0  0  0  0  0  0  0999 V2000
   -7.8439  -12.1461   11.8919 C   0  0  0  0  0  0  0  0  0  0  0  0
   -8.5691  -13.4472   11.6781 C   0  0  0  0  0  0  0  0  0  0  0  0
   -9.7886  -13.4981   11.5208 O   0  0  0  0  0  0  0  0  0  0  0  0
   -7.7264  -14.5390   11.7020 N   0  0  0  0  0  0  0  0  0  0  0  0
   -8.1889  -15.8197   11.5323 C   0  0  0  0  0  0  0  0  0  0  0  0
   -9.4747  -16.2039   11.8163 N   0  0  0  0  0  0  0  0  0  0  0  0
   -9.5964  -17.5375   11.5379 C   0  0  0  0  0  0  0  0  0  0  0  0
  -10.6643  -18.4283   11.6415 C   0  0  0  0  0  0  0  0  0  0  0  0
  -10.4051  -19.7586   11.2778 C   0  0  0  0  0  0  0  0  0  0  0  0
   -9.1530  -20.1507   10.7795 C   0  0  0  0  0  0  0  0  0  0  0  0
   -8.1017  -19.2294   10.6839 C   0  0  0  0  0  0  0  0  0  0  0  0
   -8.3349  -17.9032   11.0783 C   0  0  0  0  0  0  0  0  0  0  0  0
   -7.4773  -16.8281   11.0838 N   0  0  0  0  0  0  0  0  0  0  0  0
   -8.8530  -21.7658   10.2429 Cl  0  0  0  0  0  0  0  0  0  0  0  0
  -11.4669  -20.6323   11.3734 O   0  0  0  0  0  0  0  0  0  0  0  0
  -12.5262  -20.4408   10.5053 C   0  0  0  0  0  0  0  0  0  0  0  0
  -13.3188  -19.2846   10.5304 C   0  0  0  0  0  0  0  0  0  0  0  0
  -14.3665  -19.1344    9.6224 C   0  0  0  0  0  0  0  0  0  0  0  0
  -14.6219  -20.1279    8.6796 C   0  0  0  0  0  0  0  0  0  0  0  0
  -13.8238  -21.2756    8.6345 C   0  0  0  0  0  0  0  0  0  0  0  0
  -12.7674  -21.4342    9.5416 C   0  0  0  0  0  0  0  0  0  0  0  0
  -11.7588  -22.8458    9.4996 Cl  0  0  0  0  0  0  0  0  0  0  0  0
  -14.1988  -22.4584    7.4296 Cl  0  0  0  0  0  0  0  0  0  0  0  0
  1  2  1  0
  2  3  2  0
  2  4  1  0
  4  5  1  0
  5  6  1  0
  5 13  2  0
  6  7  1  0
  7  8  2  0
  7 12  1  0
  8  9  1  0
  9 10  2  0
  9 15  1  0
 10 11  1  0
 10 14  1  0
 11 12  2  0
 12 13  1  0
 15 16  1  0
 16 17  2  0
 16 21  1  0
 17 18  1  0
 18 19  2  0
 19 20  1  0
 20 21  2  0
 20 23  1  0
 21 22  1  0
M  END
>  <Gold.Gold.Protein.RotatedWaterAtoms>  (406) 


>  <Gold.Id.Protein>  (406) 


>  <Gold.PLP.Chemscore.CHOScore>  (406) 
0.0000

>  <Gold.PLP.Chemscore.Hbond>  (406) 
1.0000

>  <Gold.PLP.Chemscore.Internal.Correction>  (406) 
0.0086

>  <Gold.PLP.Chemscore.Metal>  (406) 
0.0000

>  <Gold.PLP.Fitness>  (406) 
50.7139

>  <Gold.PLP.PLP>  (406) 
-48.1706

>  <Gold.PLP.ligand.clash>  (406) 
0.0000

>  <Gold.PLP.ligand.torsion>  (406) 
0.2327

>  <Gold.PLP.part.buried>  (406) 
-6.5205

>  <Gold.PLP.part.hbond>  (406) 
-2.0000

>  <Gold.PLP.part.metal>  (406) 
0.0000

>  <Gold.PLP.part.nonpolar>  (406) 
-39.3857

>  <Gold.PLP.part.repulsive>  (406) 
0.3298

>  <Gold.Protein.RotatedAtoms>  (406) 


>  <Gold.Protein.RotatedTorsions>  (406) 


>  <Gold.Protein.RotatedWaterAtoms>  (406) 


>  <Gold.Version>  (406) 
5.3.0

>  <PLP.Chemscore.CHOScore>  (406) 


>  <PLP.Chemscore.Hbond>  (406) 


>  <PLP.Chemscore.Internal.Correction>  (406) 


>  <PLP.Chemscore.Metal>  (406) 


>  <PLP.Fitness>  (406) 


>  <PLP.PLP>  (406) 


>  <PLP.ligand.clash>  (406) 


>  <PLP.ligand.torsion>  (406) 


>  <PLP.part.buried>  (406) 


>  <PLP.part.hbond>  (406) 


>  <PLP.part.metal>  (406) 


>  <PLP.part.nonpolar>  (406) 


>  <PLP.part.repulsive>  (406) 


>  <RMSD>  (406) 
0.439733510035

>  <Torsion>  (406) 
177.672185574

>  <TorsionO>  (406) 
4.31728583372

>  <TorsionR>  (406) 
173.35489974

>  <Version>  (406) 


>  <product>  (406) 
38|Compound_21|Compounds_3D_F|sdf|8|dock1|1

>  <rmsd>  (406) 
-1

$$$$
90|Compound_34|Compounds_3D_F|sdf|15|dock1|1
     RDKit          3D

 10  9  0  0  0  0  0  0  0  0999 V2000
   -5.8170  -14.9561    9.1259 O   0  0  0  0  0  0  0  0  0  0  0  0
   -6.1086  -15.8075   10.1208 C   0  0  0  0  0  0  0  0  0  0  0  0
   -6.5361  -16.9097    9.8683 O   0  0  0  0  0  0  0  0  0  0  0  0
   -5.9042  -15.3899   11.5545 C   0  0  0  0  0  0  0  0  0  0  0  0
   -5.4628  -13.9935   11.5993 N   0  0  0  0  0  0  0  0  0  0  0  0
   -6.2105  -13.0703   12.2363 C   0  0  0  0  0  0  0  0  0  0  0  0
   -7.2483  -13.3950   12.7718 O   0  0  0  0  0  0  0  0  0  0  0  0
   -5.7373  -11.5746   12.2833 B   0  0  0  0  0  0  0  0  0  0  0  0
   -4.8406  -16.2816   12.1990 C   0  0  0  0  0  0  0  0  0  0  0  0
   -3.5944  -16.1010   11.5232 O   0  0  0  0  0  0  0  0  0  0  0  0
  1  2  1  0
  2  3  2  0
  2  4  1  0
  4  5  1  0
  4  9  1  0
  5  6  1  0
  6  7  2  0
  6  8  1  0
  9 10  1  0
M  END
>  <Gold.Gold.Protein.RotatedWaterAtoms>  (407) 


>  <Gold.Id.Protein>  (407) 


>  <Gold.PLP.Chemscore.CHOScore>  (407) 
0.0000

>  <Gold.PLP.Chemscore.Hbond>  (407) 
2.9913

>  <Gold.PLP.Chemscore.Internal.Correction>  (407) 
0.0012

>  <Gold.PLP.Chemscore.Metal>  (407) 
0.0000

>  <Gold.PLP.Fitness>  (407) 
34.5477

>  <Gold.PLP.PLP>  (407) 
-25.6343

>  <Gold.PLP.ligand.clash>  (407) 
0.0000

>  <Gold.PLP.ligand.torsion>  (407) 
0.0307

>  <Gold.PLP.part.buried>  (407) 
-5.7344

>  <Gold.PLP.part.hbond>  (407) 
-5.1889

>  <Gold.PLP.part.metal>  (407) 
0.0000

>  <Gold.PLP.part.nonpolar>  (407) 
-15.1662

>  <Gold.PLP.part.repulsive>  (407) 
0.2659

>  <Gold.Protein.RotatedAtoms>  (407) 


>  <Gold.Protein.RotatedTorsions>  (407) 


>  <Gold.Protein.RotatedWaterAtoms>  (407) 


>  <Gold.Version>  (407) 
5.3.0

>  <PLP.Chemscore.CHOScore>  (407) 


>  <PLP.Chemscore.Hbond>  (407) 


>  <PLP.Chemscore.Internal.Correction>  (407) 


>  <PLP.Chemscore.Metal>  (407) 


>  <PLP.Fitness>  (407) 


>  <PLP.PLP>  (407) 


>  <PLP.ligand.clash>  (407) 


>  <PLP.ligand.torsion>  (407) 


>  <PLP.part.buried>  (407) 


>  <PLP.part.hbond>  (407) 


>  <PLP.part.metal>  (407) 


>  <PLP.part.nonpolar>  (407) 


>  <PLP.part.repulsive>  (407) 


>  <Version>  (407) 


$$$$
94|664022_40|Aromatic_carboxylic_acids_F|sdf|24|dock1|1
     RDKit          3D

 12 12  0  0  0  0  0  0  0  0999 V2000
   -8.2596  -17.1212   11.4595 C   0  0  0  0  0  0  0  0  0  0  0  0
   -7.6366  -15.8367   11.6688 N   0  0  0  0  0  0  0  0  0  0  0  0
   -8.3409  -14.6553   11.5719 C   0  0  0  0  0  0  0  0  0  0  0  0
   -9.5296  -14.5547   11.2978 O   0  0  0  0  0  0  0  0  0  0  0  0
   -7.5420  -13.4431   11.8503 C   0  0  0  0  0  0  0  0  0  0  0  0
   -8.1627  -12.1983   11.6738 C   0  0  0  0  0  0  0  0  0  0  0  0
   -7.4390  -11.0301   11.9055 C   0  0  0  0  0  0  0  0  0  0  0  0
   -6.1069  -11.0910   12.3103 C   0  0  0  0  0  0  0  0  0  0  0  0
   -5.4897  -12.3324   12.4853 C   0  0  0  0  0  0  0  0  0  0  0  0
   -6.2035  -13.5136   12.2549 C   0  0  0  0  0  0  0  0  0  0  0  0
   -5.3062  -15.1564   12.5638 Br  0  0  0  0  0  0  0  0  0  0  0  0
   -8.1960   -9.5005   11.6887 Cl  0  0  0  0  0  0  0  0  0  0  0  0
  1  2  1  0
  2  3  1  0
  3  4  2  0
  3  5  1  0
  5  6  2  0
  5 10  1  0
  6  7  1  0
  7  8  2  0
  7 12  1  0
  8  9  1  0
  9 10  2  0
 10 11  1  0
M  END
>  <Gold.Gold.Protein.RotatedWaterAtoms>  (408) 


>  <Gold.Id.Protein>  (408) 


>  <Gold.PLP.Chemscore.CHOScore>  (408) 
0.0000

>  <Gold.PLP.Chemscore.Hbond>  (408) 
0.4160

>  <Gold.PLP.Chemscore.Internal.Correction>  (408) 
0.0004

>  <Gold.PLP.Chemscore.Metal>  (408) 
0.0000

>  <Gold.PLP.Fitness>  (408) 
48.9046

>  <Gold.PLP.PLP>  (408) 
-47.6744

>  <Gold.PLP.ligand.clash>  (408) 
0.0000

>  <Gold.PLP.ligand.torsion>  (408) 
0.0091

>  <Gold.PLP.part.buried>  (408) 
-7.3578

>  <Gold.PLP.part.hbond>  (408) 
-0.5127

>  <Gold.PLP.part.metal>  (408) 
0.0000

>  <Gold.PLP.part.nonpolar>  (408) 
-40.3098

>  <Gold.PLP.part.repulsive>  (408) 
0.1684

>  <Gold.Protein.RotatedAtoms>  (408) 


>  <Gold.Protein.RotatedTorsions>  (408) 


>  <Gold.Protein.RotatedWaterAtoms>  (408) 


>  <Gold.Version>  (408) 
5.3.0

>  <PLP.Chemscore.CHOScore>  (408) 


>  <PLP.Chemscore.Hbond>  (408) 


>  <PLP.Chemscore.Internal.Correction>  (408) 


>  <PLP.Chemscore.Metal>  (408) 


>  <PLP.Fitness>  (408) 


>  <PLP.PLP>  (408) 


>  <PLP.ligand.clash>  (408) 


>  <PLP.ligand.torsion>  (408) 


>  <PLP.part.buried>  (408) 


>  <PLP.part.hbond>  (408) 


>  <PLP.part.metal>  (408) 


>  <PLP.part.nonpolar>  (408) 


>  <PLP.part.repulsive>  (408) 


>  <RMSD>  (408) 
0.30972197429

>  <Torsion>  (408) 
172.929186758

>  <TorsionO>  (408) 
24.4968065243

>  <TorsionR>  (408) 
162.574006718

>  <Version>  (408) 


>  <product>  (408) 
90|Compound_34|Compounds_3D_F|sdf|15|dock1|1

>  <rmsd>  (408) 
-1

$$$$
110|565385_49|Aromatic_carboxylic_acids_F|sdf|29|dock1|1
     RDKit          3D

 13 13  0  0  0  0  0  0  0  0999 V2000
  -10.1118  -17.9021   11.6320 C   0  0  0  0  0  0  0  0  0  0  0  0
   -9.7537  -16.5043   11.6546 N   0  0  0  0  0  0  0  0  0  0  0  0
   -8.4330  -16.1187   11.7930 C   0  0  0  0  0  0  0  0  0  0  0  0
   -7.5159  -16.9298   11.9008 O   0  0  0  0  0  0  0  0  0  0  0  0
   -8.1234  -14.6552   11.8105 C   0  0  0  0  0  0  0  0  0  0  0  0
   -9.0636  -13.6551   11.5375 C   0  0  0  0  0  0  0  0  0  0  0  0
   -8.6966  -12.3009   11.5726 C   0  0  0  0  0  0  0  0  0  0  0  0
   -7.3879  -11.9195   11.8809 C   0  0  0  0  0  0  0  0  0  0  0  0
   -6.4486  -12.9235   12.1551 C   0  0  0  0  0  0  0  0  0  0  0  0
   -6.8098  -14.2750   12.1207 C   0  0  0  0  0  0  0  0  0  0  0  0
   -4.6444  -12.5025   12.5849 Br  0  0  0  0  0  0  0  0  0  0  0  0
   -6.9476  -10.6242   11.9372 O   0  0  0  0  0  0  0  0  0  0  0  0
   -7.9020   -9.5910   11.7256 C   0  0  0  0  0  0  0  0  0  0  0  0
  1  2  1  0
  2  3  1  0
  3  4  2  0
  3  5  1  0
  5  6  2  0
  5 10  1  0
  6  7  1  0
  7  8  2  0
  8  9  1  0
  8 12  1  0
  9 10  2  0
  9 11  1  0
 12 13  1  0
M  END
>  <Gold.Gold.Protein.RotatedWaterAtoms>  (409) 


>  <Gold.Id.Protein>  (409) 


>  <Gold.PLP.Chemscore.CHOScore>  (409) 
0.0000

>  <Gold.PLP.Chemscore.Hbond>  (409) 
1.0000

>  <Gold.PLP.Chemscore.Internal.Correction>  (409) 
0.0000

>  <Gold.PLP.Chemscore.Metal>  (409) 
0.0000

>  <Gold.PLP.Fitness>  (409) 
43.9775

>  <Gold.PLP.PLP>  (409) 
-41.0517

>  <Gold.PLP.ligand.clash>  (409) 
0.0000

>  <Gold.PLP.ligand.torsion>  (409) 
0.0371

>  <Gold.PLP.part.buried>  (409) 
-3.7367

>  <Gold.PLP.part.hbond>  (409) 
-1.0000

>  <Gold.PLP.part.metal>  (409) 
0.0000

>  <Gold.PLP.part.nonpolar>  (409) 
-36.7483

>  <Gold.PLP.part.repulsive>  (409) 
0.4054

>  <Gold.Protein.RotatedAtoms>  (409) 


>  <Gold.Protein.RotatedTorsions>  (409) 


>  <Gold.Protein.RotatedWaterAtoms>  (409) 


>  <Gold.Version>  (409) 
5.3.0

>  <PLP.Chemscore.CHOScore>  (409) 


>  <PLP.Chemscore.Hbond>  (409) 


>  <PLP.Chemscore.Internal.Correction>  (409) 


>  <PLP.Chemscore.Metal>  (409) 


>  <PLP.Fitness>  (409) 


>  <PLP.PLP>  (409) 


>  <PLP.ligand.clash>  (409) 


>  <PLP.ligand.torsion>  (409) 


>  <PLP.part.buried>  (409) 


>  <PLP.part.hbond>  (409) 


>  <PLP.part.metal>  (409) 


>  <PLP.part.nonpolar>  (409) 


>  <PLP.part.repulsive>  (409) 


>  <RMSD>  (409) 
0.319376411377

>  <Torsion>  (409) 
169.460450784

>  <TorsionO>  (409) 
9.7963905484

>  <TorsionR>  (409) 
179.256841332

>  <Version>  (409) 


>  <product>  (409) 
90|Compound_34|Compounds_3D_F|sdf|15|dock1|1

>  <rmsd>  (409) 
-1

$$$$
128|137677_56|Aromatic_carboxylic_acids_F|sdf|33|dock1|1
     RDKit          3D

 11 11  0  0  0  0  0  0  0  0999 V2000
   -8.6116  -16.1544   11.8887 C   0  0  0  0  0  0  0  0  0  0  0  0
   -7.9978  -14.8484   11.9215 N   0  0  0  0  0  0  0  0  0  0  0  0
   -8.7778  -13.7008   11.8756 C   0  0  0  0  0  0  0  0  0  0  0  0
  -10.0002  -13.7896   11.8139 O   0  0  0  0  0  0  0  0  0  0  0  0
   -8.0808  -12.3609   11.9017 C   0  0  0  0  0  0  0  0  0  0  0  0
   -8.7916  -11.1851   11.5813 C   0  0  0  0  0  0  0  0  0  0  0  0
   -8.1781   -9.9267   11.5989 C   0  0  0  0  0  0  0  0  0  0  0  0
   -6.8391   -9.8089   11.9369 C   0  0  0  0  0  0  0  0  0  0  0  0
   -6.1124  -10.9502   12.2575 C   0  0  0  0  0  0  0  0  0  0  0  0
   -6.7171  -12.2196   12.2428 C   0  0  0  0  0  0  0  0  0  0  0  0
   -5.5419  -13.6455   12.7121 Br  0  0  0  0  0  0  0  0  0  0  0  0
  1  2  1  0
  2  3  1  0
  3  4  2  0
  3  5  1  0
  5  6  2  0
  5 10  1  0
  6  7  1  0
  7  8  2  0
  8  9  1  0
  9 10  2  0
 10 11  1  0
M  END
>  <Gold.Gold.Protein.RotatedWaterAtoms>  (410) 


>  <Gold.Id.Protein>  (410) 


>  <Gold.PLP.Chemscore.CHOScore>  (410) 
0.0000

>  <Gold.PLP.Chemscore.Hbond>  (410) 
1.0000

>  <Gold.PLP.Chemscore.Internal.Correction>  (410) 
0.0000

>  <Gold.PLP.Chemscore.Metal>  (410) 
0.0000

>  <Gold.PLP.Fitness>  (410) 
45.2899

>  <Gold.PLP.PLP>  (410) 
-42.4444

>  <Gold.PLP.ligand.clash>  (410) 
0.0000

>  <Gold.PLP.ligand.torsion>  (410) 
0.0772

>  <Gold.PLP.part.buried>  (410) 
-6.4690

>  <Gold.PLP.part.hbond>  (410) 
-0.6863

>  <Gold.PLP.part.metal>  (410) 
0.0000

>  <Gold.PLP.part.nonpolar>  (410) 
-34.8280

>  <Gold.PLP.part.repulsive>  (410) 
0.1963

>  <Gold.Protein.RotatedAtoms>  (410) 


>  <Gold.Protein.RotatedTorsions>  (410) 


>  <Gold.Protein.RotatedWaterAtoms>  (410) 


>  <Gold.Version>  (410) 
5.3.0

>  <PLP.Chemscore.CHOScore>  (410) 


>  <PLP.Chemscore.Hbond>  (410) 


>  <PLP.Chemscore.Internal.Correction>  (410) 


>  <PLP.Chemscore.Metal>  (410) 


>  <PLP.Fitness>  (410) 


>  <PLP.PLP>  (410) 


>  <PLP.ligand.clash>  (410) 


>  <PLP.ligand.torsion>  (410) 


>  <PLP.part.buried>  (410) 


>  <PLP.part.hbond>  (410) 


>  <PLP.part.metal>  (410) 


>  <PLP.part.nonpolar>  (410) 


>  <PLP.part.repulsive>  (410) 


>  <RMSD>  (410) 
0.428070490903

>  <Torsion>  (410) 
152.444048788

>  <TorsionO>  (410) 
39.0580871276

>  <TorsionR>  (410) 
168.497864085

>  <Version>  (410) 


>  <product>  (410) 
90|Compound_34|Compounds_3D_F|sdf|15|dock1|1

>  <rmsd>  (410) 
-1

$$$$
974|750794_1404|Aromatic_primary_amines_F|sdf|194|dock3|1
     RDKit          3D

 14 14  0  0  0  0  0  0  0  0999 V2000
  -13.6355  -18.1936    9.4145 C   0  0  0  0  0  0  0  0  0  0  0  0
  -13.2544  -19.4497   10.1732 C   0  0  0  0  0  0  0  0  0  0  0  0
  -11.8731  -19.3506   10.5383 O   0  0  0  0  0  0  0  0  0  0  0  0
  -11.6148  -18.5085   11.5823 C   0  0  0  0  0  0  0  0  0  0  0  0
  -12.3947  -18.2810   12.5004 O   0  0  0  0  0  0  0  0  0  0  0  0
  -10.3031  -17.8985   11.4902 C   0  0  0  0  0  0  0  0  0  0  0  0
   -9.1673  -18.4974   10.9931 C   0  0  0  0  0  0  0  0  0  0  0  0
   -8.1448  -17.6055   11.0758 O   0  0  0  0  0  0  0  0  0  0  0  0
   -8.7110  -16.4917   11.6237 C   0  0  0  0  0  0  0  0  0  0  0  0
   -9.9933  -16.6110   11.8915 N   0  0  0  0  0  0  0  0  0  0  0  0
   -7.9611  -15.3718   11.8549 N   0  0  0  0  0  0  0  0  0  0  0  0
   -8.5046  -14.1249   12.0676 C   0  0  0  0  0  0  0  0  0  0  0  0
   -9.6950  -13.8313   12.1035 O   0  0  0  0  0  0  0  0  0  0  0  0
   -7.4448  -13.0785   12.3021 C   0  0  0  0  0  0  0  0  0  0  0  0
  1  2  1  0
  2  3  1  0
  3  4  1  0
  4  5  2  0
  4  6  1  0
  6  7  2  0
  6 10  1  0
  7  8  1  0
  8  9  1  0
  9 10  2  0
  9 11  1  0
 11 12  1  0
 12 13  2  0
 12 14  1  0
M  END
>  <Gold.Gold.Protein.RotatedWaterAtoms>  (411) 


>  <Gold.Id.Protein>  (411) 


>  <Gold.PLP.Chemscore.CHOScore>  (411) 
0.0000

>  <Gold.PLP.Chemscore.Hbond>  (411) 
2.0000

>  <Gold.PLP.Chemscore.Internal.Correction>  (411) 
0.0053

>  <Gold.PLP.Chemscore.Metal>  (411) 
0.0000

>  <Gold.PLP.Fitness>  (411) 
36.8047

>  <Gold.PLP.PLP>  (411) 
-32.7996

>  <Gold.PLP.ligand.clash>  (411) 
0.0000

>  <Gold.PLP.ligand.torsion>  (411) 
1.0001

>  <Gold.PLP.part.buried>  (411) 
-6.5206

>  <Gold.PLP.part.hbond>  (411) 
-2.9156

>  <Gold.PLP.part.metal>  (411) 
0.0000

>  <Gold.PLP.part.nonpolar>  (411) 
-23.4080

>  <Gold.PLP.part.repulsive>  (411) 
0.3100

>  <Gold.Protein.RotatedAtoms>  (411) 


>  <Gold.Protein.RotatedTorsions>  (411) 


>  <Gold.Protein.RotatedWaterAtoms>  (411) 


>  <Gold.Version>  (411) 
5.3.0

>  <PLP.Chemscore.CHOScore>  (411) 


>  <PLP.Chemscore.Hbond>  (411) 


>  <PLP.Chemscore.Internal.Correction>  (411) 


>  <PLP.Chemscore.Metal>  (411) 


>  <PLP.Fitness>  (411) 


>  <PLP.PLP>  (411) 


>  <PLP.ligand.clash>  (411) 


>  <PLP.ligand.torsion>  (411) 


>  <PLP.part.buried>  (411) 


>  <PLP.part.hbond>  (411) 


>  <PLP.part.metal>  (411) 


>  <PLP.part.nonpolar>  (411) 


>  <PLP.part.repulsive>  (411) 


>  <RMSD>  (411) 
0.499949349045

>  <Torsion>  (411) 
159.973716791

>  <TorsionO>  (411) 
19.1052109979

>  <TorsionR>  (411) 
179.078927789

>  <Version>  (411) 


>  <product>  (411) 
90|Compound_34|Compounds_3D_F|sdf|15|dock1|1

>  <rmsd>  (411) 
-1

$$$$
1884|M3006_1781|Aromatic_primary_amines_F|sdf|361|dock3|1
     RDKit          3D

 31 34  0  0  0  0  0  0  0  0999 V2000
  -14.4210  -19.8971    8.7934 C   0  0  0  0  0  0  0  0  0  0  0  0
  -13.9762  -19.4927   10.1894 C   0  0  0  0  0  0  0  0  0  0  0  0
  -14.1356  -20.6409   11.1817 C   0  0  0  0  0  0  0  0  0  0  0  0
  -13.5197  -20.3070   12.5189 C   0  0  0  0  0  0  0  0  0  0  0  0
  -12.9307  -19.2724   12.7954 O   0  0  0  0  0  0  0  0  0  0  0  0
  -13.7110  -21.3451   13.3845 O   0  0  0  0  0  0  0  0  0  0  0  0
  -12.9425  -21.2698   14.5900 C   0  0  0  0  0  0  0  0  0  0  0  0
  -12.8849  -22.6189   15.2889 C   0  0  0  0  0  0  0  0  0  0  0  0
  -11.6552  -22.4172   16.1494 C   0  0  0  0  0  0  0  0  0  0  0  0
  -11.2420  -23.7410   16.7624 C   0  0  0  0  0  0  0  0  0  0  0  0
  -12.3024  -24.2223   17.5862 O   0  0  0  0  0  0  0  0  0  0  0  0
  -13.7888  -24.3384   16.9603 P   0  0  0  0  0  0  0  0  0  0  0  0
  -14.8775  -24.6795   17.9243 O   0  0  0  0  0  0  0  0  0  0  0  0
  -13.9839  -22.9641   16.1174 O   0  0  0  0  0  0  0  0  0  0  0  0
  -13.5991  -25.4435   15.8075 O   0  0  0  0  0  0  0  0  0  0  0  0
  -10.6922  -21.8161   15.2889 O   0  0  0  0  0  0  0  0  0  0  0  0
  -11.4338  -20.9664   14.3653 C   0  0  0  0  0  0  0  0  0  0  0  0
  -10.9052  -21.2017   13.0342 N   0  0  0  0  0  0  0  0  0  0  0  0
  -10.7814  -22.4114   12.4013 C   0  0  0  0  0  0  0  0  0  0  0  0
  -10.2640  -22.2918   11.1953 N   0  0  0  0  0  0  0  0  0  0  0  0
  -10.0274  -20.9476   11.0424 C   0  0  0  0  0  0  0  0  0  0  0  0
  -10.4203  -20.2487   12.1733 C   0  0  0  0  0  0  0  0  0  0  0  0
  -10.3338  -18.9216   12.3641 N   0  0  0  0  0  0  0  0  0  0  0  0
   -9.8057  -18.2730   11.3024 C   0  0  0  0  0  0  0  0  0  0  0  0
   -9.3808  -18.8370   10.1545 N   0  0  0  0  0  0  0  0  0  0  0  0
   -9.4895  -20.1691   10.0244 C   0  0  0  0  0  0  0  0  0  0  0  0
   -9.0330  -20.6622    8.8349 O   0  0  0  0  0  0  0  0  0  0  0  0
   -9.7222  -16.8901   11.4793 N   0  0  0  0  0  0  0  0  0  0  0  0
   -8.5796  -16.1798   11.7761 C   0  0  0  0  0  0  0  0  0  0  0  0
   -7.4445  -16.6221   11.9131 O   0  0  0  0  0  0  0  0  0  0  0  0
   -8.8524  -14.7024   11.8973 C   0  0  0  0  0  0  0  0  0  0  0  0
  1  2  1  0
  2  3  1  0
  3  4  1  0
  4  5  2  0
  4  6  1  0
  6  7  1  0
  7  8  1  0
  7 17  1  0
  8  9  1  0
  8 14  1  0
  9 10  1  0
  9 16  1  0
 10 11  1  0
 11 12  1  0
 12 13  2  0
 12 14  1  0
 12 15  1  0
 16 17  1  0
 17 18  1  0
 18 19  1  0
 18 22  1  0
 19 20  2  0
 20 21  1  0
 21 22  2  0
 21 26  1  0
 22 23  1  0
 23 24  2  0
 24 25  1  0
 24 28  1  0
 25 26  2  0
 26 27  1  0
 28 29  1  0
 29 30  2  0
 29 31  1  0
M  END
>  <Gold.Gold.Protein.RotatedWaterAtoms>  (412) 


>  <Gold.Id.Protein>  (412) 


>  <Gold.PLP.Chemscore.CHOScore>  (412) 
0.0000

>  <Gold.PLP.Chemscore.Hbond>  (412) 
1.2080

>  <Gold.PLP.Chemscore.Internal.Correction>  (412) 
0.1232

>  <Gold.PLP.Chemscore.Metal>  (412) 
0.0000

>  <Gold.PLP.Fitness>  (412) 
47.7145

>  <Gold.PLP.PLP>  (412) 
-46.0218

>  <Gold.PLP.ligand.clash>  (412) 
0.0000

>  <Gold.PLP.ligand.torsion>  (412) 
1.0272

>  <Gold.PLP.part.buried>  (412) 
-2.2958

>  <Gold.PLP.part.hbond>  (412) 
-4.0214

>  <Gold.PLP.part.metal>  (412) 
0.0000

>  <Gold.PLP.part.nonpolar>  (412) 
-41.4699

>  <Gold.PLP.part.repulsive>  (412) 
0.9524

>  <Gold.Protein.RotatedAtoms>  (412) 


>  <Gold.Protein.RotatedTorsions>  (412) 


>  <Gold.Protein.RotatedWaterAtoms>  (412) 


>  <Gold.Version>  (412) 
5.3.0

>  <PLP.Chemscore.CHOScore>  (412) 


>  <PLP.Chemscore.Hbond>  (412) 


>  <PLP.Chemscore.Internal.Correction>  (412) 


>  <PLP.Chemscore.Metal>  (412) 


>  <PLP.Fitness>  (412) 


>  <PLP.PLP>  (412) 


>  <PLP.ligand.clash>  (412) 


>  <PLP.ligand.torsion>  (412) 


>  <PLP.part.buried>  (412) 


>  <PLP.part.hbond>  (412) 


>  <PLP.part.metal>  (412) 


>  <PLP.part.nonpolar>  (412) 


>  <PLP.part.repulsive>  (412) 


>  <RMSD>  (412) 
0.291955871297

>  <Torsion>  (412) 
171.923704933

>  <TorsionO>  (412) 
6.03609353985

>  <TorsionR>  (412) 
177.959798473

>  <Version>  (412) 


>  <product>  (412) 
90|Compound_34|Compounds_3D_F|sdf|15|dock1|1

>  <rmsd>  (412) 
-1

$$$$
193|32168_281|Aromatic_primary_amines_F|sdf|39|dock6|1
     RDKit          3D

 23 25  0  0  0  0  0  0  0  0999 V2000
   -7.8439  -12.1461   11.8919 C   0  0  0  0  0  0  0  0  0  0  0  0
   -8.5691  -13.4472   11.6781 C   0  0  0  0  0  0  0  0  0  0  0  0
   -9.7886  -13.4981   11.5208 O   0  0  0  0  0  0  0  0  0  0  0  0
   -7.7264  -14.5390   11.7020 N   0  0  0  0  0  0  0  0  0  0  0  0
   -8.1889  -15.8197   11.5323 C   0  0  0  0  0  0  0  0  0  0  0  0
   -9.4747  -16.2039   11.8163 N   0  0  0  0  0  0  0  0  0  0  0  0
   -9.5964  -17.5375   11.5379 C   0  0  0  0  0  0  0  0  0  0  0  0
  -10.6643  -18.4283   11.6415 C   0  0  0  0  0  0  0  0  0  0  0  0
  -10.4051  -19.7586   11.2778 C   0  0  0  0  0  0  0  0  0  0  0  0
   -9.1530  -20.1507   10.7795 C   0  0  0  0  0  0  0  0  0  0  0  0
   -8.1017  -19.2294   10.6839 C   0  0  0  0  0  0  0  0  0  0  0  0
   -8.3349  -17.9032   11.0783 C   0  0  0  0  0  0  0  0  0  0  0  0
   -7.4773  -16.8281   11.0838 N   0  0  0  0  0  0  0  0  0  0  0  0
   -8.8530  -21.7658   10.2429 Cl  0  0  0  0  0  0  0  0  0  0  0  0
  -11.4669  -20.6323   11.3734 O   0  0  0  0  0  0  0  0  0  0  0  0
  -12.5262  -20.4408   10.5053 C   0  0  0  0  0  0  0  0  0  0  0  0
  -13.3188  -19.2846   10.5304 C   0  0  0  0  0  0  0  0  0  0  0  0
  -14.3665  -19.1344    9.6224 C   0  0  0  0  0  0  0  0  0  0  0  0
  -14.6219  -20.1279    8.6796 C   0  0  0  0  0  0  0  0  0  0  0  0
  -13.8238  -21.2756    8.6345 C   0  0  0  0  0  0  0  0  0  0  0  0
  -12.7674  -21.4342    9.5416 C   0  0  0  0  0  0  0  0  0  0  0  0
  -11.7588  -22.8458    9.4996 Cl  0  0  0  0  0  0  0  0  0  0  0  0
  -14.1988  -22.4584    7.4296 Cl  0  0  0  0  0  0  0  0  0  0  0  0
  1  2  1  0
  2  3  2  0
  2  4  1  0
  4  5  1  0
  5  6  1  0
  5 13  2  0
  6  7  1  0
  7  8  2  0
  7 12  1  0
  8  9  1  0
  9 10  2  0
  9 15  1  0
 10 11  1  0
 10 14  1  0
 11 12  2  0
 12 13  1  0
 15 16  1  0
 16 17  2  0
 16 21  1  0
 17 18  1  0
 18 19  2  0
 19 20  1  0
 20 21  2  0
 20 23  1  0
 21 22  1  0
M  END
>  <Gold.Gold.Protein.RotatedWaterAtoms>  (413) 


>  <Gold.Id.Protein>  (413) 


>  <Gold.PLP.Chemscore.CHOScore>  (413) 
0.0000

>  <Gold.PLP.Chemscore.Hbond>  (413) 
1.0000

>  <Gold.PLP.Chemscore.Internal.Correction>  (413) 
0.0086

>  <Gold.PLP.Chemscore.Metal>  (413) 
0.0000

>  <Gold.PLP.Fitness>  (413) 
50.7139

>  <Gold.PLP.PLP>  (413) 
-48.1706

>  <Gold.PLP.ligand.clash>  (413) 
0.0000

>  <Gold.PLP.ligand.torsion>  (413) 
0.2327

>  <Gold.PLP.part.buried>  (413) 
-6.5205

>  <Gold.PLP.part.hbond>  (413) 
-2.0000

>  <Gold.PLP.part.metal>  (413) 
0.0000

>  <Gold.PLP.part.nonpolar>  (413) 
-39.3857

>  <Gold.PLP.part.repulsive>  (413) 
0.3298

>  <Gold.Protein.RotatedAtoms>  (413) 


>  <Gold.Protein.RotatedTorsions>  (413) 


>  <Gold.Protein.RotatedWaterAtoms>  (413) 


>  <Gold.Version>  (413) 
5.3.0

>  <PLP.Chemscore.CHOScore>  (413) 


>  <PLP.Chemscore.Hbond>  (413) 


>  <PLP.Chemscore.Internal.Correction>  (413) 


>  <PLP.Chemscore.Metal>  (413) 


>  <PLP.Fitness>  (413) 


>  <PLP.PLP>  (413) 


>  <PLP.ligand.clash>  (413) 


>  <PLP.ligand.torsion>  (413) 


>  <PLP.part.buried>  (413) 


>  <PLP.part.hbond>  (413) 


>  <PLP.part.metal>  (413) 


>  <PLP.part.nonpolar>  (413) 


>  <PLP.part.repulsive>  (413) 


>  <RMSD>  (413) 
0.439733510035

>  <Torsion>  (413) 
177.672185574

>  <TorsionO>  (413) 
4.31728583372

>  <TorsionR>  (413) 
173.35489974

>  <Version>  (413) 


>  <product>  (413) 
90|Compound_34|Compounds_3D_F|sdf|15|dock1|1

>  <rmsd>  (413) 
-1

$$$$
23|Compound_12|Compounds_3D_F|sdf|5|dock4|1
     RDKit          3D

  6  5  0  0  0  0  0  0  0  0999 V2000
   -4.2917  -16.9878   11.5935 B   0  0  0  0  0  0  0  0  0  0  0  0
   -5.1999  -15.8545   12.1890 C   0  0  0  0  0  0  0  0  0  0  0  0
   -6.1935  -16.1425   12.8214 O   0  0  0  0  0  0  0  0  0  0  0  0
   -4.8750  -14.5602   11.9969 N   0  0  0  0  0  0  0  0  0  0  0  0
   -5.7231  -13.5024   12.5527 C   0  0  0  0  0  0  0  0  0  0  0  0
   -7.1049  -13.5602   11.8982 C   0  0  0  0  0  0  0  0  0  0  0  0
  1  2  1  0
  2  3  2  0
  2  4  1  0
  4  5  1  0
  5  6  1  0
M  END
>  <Gold.Gold.Protein.RotatedWaterAtoms>  (414) 


>  <Gold.Id.Protein>  (414) 


>  <Gold.PLP.Chemscore.CHOScore>  (414) 
0.0000

>  <Gold.PLP.Chemscore.Hbond>  (414) 
1.0000

>  <Gold.PLP.Chemscore.Internal.Correction>  (414) 
0.0000

>  <Gold.PLP.Chemscore.Metal>  (414) 
0.0000

>  <Gold.PLP.Fitness>  (414) 
23.4696

>  <Gold.PLP.PLP>  (414) 
-20.4852

>  <Gold.PLP.ligand.clash>  (414) 
0.0000

>  <Gold.PLP.ligand.torsion>  (414) 
0.0078

>  <Gold.PLP.part.buried>  (414) 
-4.2976

>  <Gold.PLP.part.hbond>  (414) 
-1.9635

>  <Gold.PLP.part.metal>  (414) 
0.0000

>  <Gold.PLP.part.nonpolar>  (414) 
-14.0670

>  <Gold.PLP.part.repulsive>  (414) 
0.1801

>  <Gold.Protein.RotatedAtoms>  (414) 


>  <Gold.Protein.RotatedTorsions>  (414) 


>  <Gold.Protein.RotatedWaterAtoms>  (414) 


>  <Gold.Version>  (414) 
5.3.0

>  <PLP.Chemscore.CHOScore>  (414) 


>  <PLP.Chemscore.Hbond>  (414) 


>  <PLP.Chemscore.Internal.Correction>  (414) 


>  <PLP.Chemscore.Metal>  (414) 


>  <PLP.Fitness>  (414) 


>  <PLP.PLP>  (414) 


>  <PLP.ligand.clash>  (414) 


>  <PLP.ligand.torsion>  (414) 


>  <PLP.part.buried>  (414) 


>  <PLP.part.hbond>  (414) 


>  <PLP.part.metal>  (414) 


>  <PLP.part.nonpolar>  (414) 


>  <PLP.part.repulsive>  (414) 


>  <Version>  (414) 


$$$$
94|664022_40|Aromatic_carboxylic_acids_F|sdf|24|dock1|1
     RDKit          3D

 12 12  0  0  0  0  0  0  0  0999 V2000
   -8.2596  -17.1212   11.4595 C   0  0  0  0  0  0  0  0  0  0  0  0
   -7.6366  -15.8367   11.6688 N   0  0  0  0  0  0  0  0  0  0  0  0
   -8.3409  -14.6553   11.5719 C   0  0  0  0  0  0  0  0  0  0  0  0
   -9.5296  -14.5547   11.2978 O   0  0  0  0  0  0  0  0  0  0  0  0
   -7.5420  -13.4431   11.8503 C   0  0  0  0  0  0  0  0  0  0  0  0
   -8.1627  -12.1983   11.6738 C   0  0  0  0  0  0  0  0  0  0  0  0
   -7.4390  -11.0301   11.9055 C   0  0  0  0  0  0  0  0  0  0  0  0
   -6.1069  -11.0910   12.3103 C   0  0  0  0  0  0  0  0  0  0  0  0
   -5.4897  -12.3324   12.4853 C   0  0  0  0  0  0  0  0  0  0  0  0
   -6.2035  -13.5136   12.2549 C   0  0  0  0  0  0  0  0  0  0  0  0
   -5.3062  -15.1564   12.5638 Br  0  0  0  0  0  0  0  0  0  0  0  0
   -8.1960   -9.5005   11.6887 Cl  0  0  0  0  0  0  0  0  0  0  0  0
  1  2  1  0
  2  3  1  0
  3  4  2  0
  3  5  1  0
  5  6  2  0
  5 10  1  0
  6  7  1  0
  7  8  2  0
  7 12  1  0
  8  9  1  0
  9 10  2  0
 10 11  1  0
M  END
>  <Gold.Gold.Protein.RotatedWaterAtoms>  (415) 


>  <Gold.Id.Protein>  (415) 


>  <Gold.PLP.Chemscore.CHOScore>  (415) 
0.0000

>  <Gold.PLP.Chemscore.Hbond>  (415) 
0.4160

>  <Gold.PLP.Chemscore.Internal.Correction>  (415) 
0.0004

>  <Gold.PLP.Chemscore.Metal>  (415) 
0.0000

>  <Gold.PLP.Fitness>  (415) 
48.9046

>  <Gold.PLP.PLP>  (415) 
-47.6744

>  <Gold.PLP.ligand.clash>  (415) 
0.0000

>  <Gold.PLP.ligand.torsion>  (415) 
0.0091

>  <Gold.PLP.part.buried>  (415) 
-7.3578

>  <Gold.PLP.part.hbond>  (415) 
-0.5127

>  <Gold.PLP.part.metal>  (415) 
0.0000

>  <Gold.PLP.part.nonpolar>  (415) 
-40.3098

>  <Gold.PLP.part.repulsive>  (415) 
0.1684

>  <Gold.Protein.RotatedAtoms>  (415) 


>  <Gold.Protein.RotatedTorsions>  (415) 


>  <Gold.Protein.RotatedWaterAtoms>  (415) 


>  <Gold.Version>  (415) 
5.3.0

>  <PLP.Chemscore.CHOScore>  (415) 


>  <PLP.Chemscore.Hbond>  (415) 


>  <PLP.Chemscore.Internal.Correction>  (415) 


>  <PLP.Chemscore.Metal>  (415) 


>  <PLP.Fitness>  (415) 


>  <PLP.PLP>  (415) 


>  <PLP.ligand.clash>  (415) 


>  <PLP.ligand.torsion>  (415) 


>  <PLP.part.buried>  (415) 


>  <PLP.part.hbond>  (415) 


>  <PLP.part.metal>  (415) 


>  <PLP.part.nonpolar>  (415) 


>  <PLP.part.repulsive>  (415) 


>  <RMSD>  (415) 
0.30972197429

>  <Torsion>  (415) 
172.929186758

>  <TorsionO>  (415) 
24.4968065243

>  <TorsionR>  (415) 
162.574006718

>  <Version>  (415) 


>  <product>  (415) 
23|Compound_12|Compounds_3D_F|sdf|5|dock4|1

>  <rmsd>  (415) 
-1

$$$$
110|565385_49|Aromatic_carboxylic_acids_F|sdf|29|dock1|1
     RDKit          3D

 13 13  0  0  0  0  0  0  0  0999 V2000
  -10.1118  -17.9021   11.6320 C   0  0  0  0  0  0  0  0  0  0  0  0
   -9.7537  -16.5043   11.6546 N   0  0  0  0  0  0  0  0  0  0  0  0
   -8.4330  -16.1187   11.7930 C   0  0  0  0  0  0  0  0  0  0  0  0
   -7.5159  -16.9298   11.9008 O   0  0  0  0  0  0  0  0  0  0  0  0
   -8.1234  -14.6552   11.8105 C   0  0  0  0  0  0  0  0  0  0  0  0
   -9.0636  -13.6551   11.5375 C   0  0  0  0  0  0  0  0  0  0  0  0
   -8.6966  -12.3009   11.5726 C   0  0  0  0  0  0  0  0  0  0  0  0
   -7.3879  -11.9195   11.8809 C   0  0  0  0  0  0  0  0  0  0  0  0
   -6.4486  -12.9235   12.1551 C   0  0  0  0  0  0  0  0  0  0  0  0
   -6.8098  -14.2750   12.1207 C   0  0  0  0  0  0  0  0  0  0  0  0
   -4.6444  -12.5025   12.5849 Br  0  0  0  0  0  0  0  0  0  0  0  0
   -6.9476  -10.6242   11.9372 O   0  0  0  0  0  0  0  0  0  0  0  0
   -7.9020   -9.5910   11.7256 C   0  0  0  0  0  0  0  0  0  0  0  0
  1  2  1  0
  2  3  1  0
  3  4  2  0
  3  5  1  0
  5  6  2  0
  5 10  1  0
  6  7  1  0
  7  8  2  0
  8  9  1  0
  8 12  1  0
  9 10  2  0
  9 11  1  0
 12 13  1  0
M  END
>  <Gold.Gold.Protein.RotatedWaterAtoms>  (416) 


>  <Gold.Id.Protein>  (416) 


>  <Gold.PLP.Chemscore.CHOScore>  (416) 
0.0000

>  <Gold.PLP.Chemscore.Hbond>  (416) 
1.0000

>  <Gold.PLP.Chemscore.Internal.Correction>  (416) 
0.0000

>  <Gold.PLP.Chemscore.Metal>  (416) 
0.0000

>  <Gold.PLP.Fitness>  (416) 
43.9775

>  <Gold.PLP.PLP>  (416) 
-41.0517

>  <Gold.PLP.ligand.clash>  (416) 
0.0000

>  <Gold.PLP.ligand.torsion>  (416) 
0.0371

>  <Gold.PLP.part.buried>  (416) 
-3.7367

>  <Gold.PLP.part.hbond>  (416) 
-1.0000

>  <Gold.PLP.part.metal>  (416) 
0.0000

>  <Gold.PLP.part.nonpolar>  (416) 
-36.7483

>  <Gold.PLP.part.repulsive>  (416) 
0.4054

>  <Gold.Protein.RotatedAtoms>  (416) 


>  <Gold.Protein.RotatedTorsions>  (416) 


>  <Gold.Protein.RotatedWaterAtoms>  (416) 


>  <Gold.Version>  (416) 
5.3.0

>  <PLP.Chemscore.CHOScore>  (416) 


>  <PLP.Chemscore.Hbond>  (416) 


>  <PLP.Chemscore.Internal.Correction>  (416) 


>  <PLP.Chemscore.Metal>  (416) 


>  <PLP.Fitness>  (416) 


>  <PLP.PLP>  (416) 


>  <PLP.ligand.clash>  (416) 


>  <PLP.ligand.torsion>  (416) 


>  <PLP.part.buried>  (416) 


>  <PLP.part.hbond>  (416) 


>  <PLP.part.metal>  (416) 


>  <PLP.part.nonpolar>  (416) 


>  <PLP.part.repulsive>  (416) 


>  <RMSD>  (416) 
0.319376411377

>  <Torsion>  (416) 
169.460450784

>  <TorsionO>  (416) 
9.7963905484

>  <TorsionR>  (416) 
179.256841332

>  <Version>  (416) 


>  <product>  (416) 
23|Compound_12|Compounds_3D_F|sdf|5|dock4|1

>  <rmsd>  (416) 
-1

$$$$
128|137677_56|Aromatic_carboxylic_acids_F|sdf|33|dock1|1
     RDKit          3D

 11 11  0  0  0  0  0  0  0  0999 V2000
   -8.6116  -16.1544   11.8887 C   0  0  0  0  0  0  0  0  0  0  0  0
   -7.9978  -14.8484   11.9215 N   0  0  0  0  0  0  0  0  0  0  0  0
   -8.7778  -13.7008   11.8756 C   0  0  0  0  0  0  0  0  0  0  0  0
  -10.0002  -13.7896   11.8139 O   0  0  0  0  0  0  0  0  0  0  0  0
   -8.0808  -12.3609   11.9017 C   0  0  0  0  0  0  0  0  0  0  0  0
   -8.7916  -11.1851   11.5813 C   0  0  0  0  0  0  0  0  0  0  0  0
   -8.1781   -9.9267   11.5989 C   0  0  0  0  0  0  0  0  0  0  0  0
   -6.8391   -9.8089   11.9369 C   0  0  0  0  0  0  0  0  0  0  0  0
   -6.1124  -10.9502   12.2575 C   0  0  0  0  0  0  0  0  0  0  0  0
   -6.7171  -12.2196   12.2428 C   0  0  0  0  0  0  0  0  0  0  0  0
   -5.5419  -13.6455   12.7121 Br  0  0  0  0  0  0  0  0  0  0  0  0
  1  2  1  0
  2  3  1  0
  3  4  2  0
  3  5  1  0
  5  6  2  0
  5 10  1  0
  6  7  1  0
  7  8  2  0
  8  9  1  0
  9 10  2  0
 10 11  1  0
M  END
>  <Gold.Gold.Protein.RotatedWaterAtoms>  (417) 


>  <Gold.Id.Protein>  (417) 


>  <Gold.PLP.Chemscore.CHOScore>  (417) 
0.0000

>  <Gold.PLP.Chemscore.Hbond>  (417) 
1.0000

>  <Gold.PLP.Chemscore.Internal.Correction>  (417) 
0.0000

>  <Gold.PLP.Chemscore.Metal>  (417) 
0.0000

>  <Gold.PLP.Fitness>  (417) 
45.2899

>  <Gold.PLP.PLP>  (417) 
-42.4444

>  <Gold.PLP.ligand.clash>  (417) 
0.0000

>  <Gold.PLP.ligand.torsion>  (417) 
0.0772

>  <Gold.PLP.part.buried>  (417) 
-6.4690

>  <Gold.PLP.part.hbond>  (417) 
-0.6863

>  <Gold.PLP.part.metal>  (417) 
0.0000

>  <Gold.PLP.part.nonpolar>  (417) 
-34.8280

>  <Gold.PLP.part.repulsive>  (417) 
0.1963

>  <Gold.Protein.RotatedAtoms>  (417) 


>  <Gold.Protein.RotatedTorsions>  (417) 


>  <Gold.Protein.RotatedWaterAtoms>  (417) 


>  <Gold.Version>  (417) 
5.3.0

>  <PLP.Chemscore.CHOScore>  (417) 


>  <PLP.Chemscore.Hbond>  (417) 


>  <PLP.Chemscore.Internal.Correction>  (417) 


>  <PLP.Chemscore.Metal>  (417) 


>  <PLP.Fitness>  (417) 


>  <PLP.PLP>  (417) 


>  <PLP.ligand.clash>  (417) 


>  <PLP.ligand.torsion>  (417) 


>  <PLP.part.buried>  (417) 


>  <PLP.part.hbond>  (417) 


>  <PLP.part.metal>  (417) 


>  <PLP.part.nonpolar>  (417) 


>  <PLP.part.repulsive>  (417) 


>  <RMSD>  (417) 
0.428070490903

>  <Torsion>  (417) 
152.444048788

>  <TorsionO>  (417) 
39.0580871276

>  <TorsionR>  (417) 
168.497864085

>  <Version>  (417) 


>  <product>  (417) 
23|Compound_12|Compounds_3D_F|sdf|5|dock4|1

>  <rmsd>  (417) 
-1

$$$$
974|750794_1404|Aromatic_primary_amines_F|sdf|194|dock3|1
     RDKit          3D

 14 14  0  0  0  0  0  0  0  0999 V2000
  -13.6355  -18.1936    9.4145 C   0  0  0  0  0  0  0  0  0  0  0  0
  -13.2544  -19.4497   10.1732 C   0  0  0  0  0  0  0  0  0  0  0  0
  -11.8731  -19.3506   10.5383 O   0  0  0  0  0  0  0  0  0  0  0  0
  -11.6148  -18.5085   11.5823 C   0  0  0  0  0  0  0  0  0  0  0  0
  -12.3947  -18.2810   12.5004 O   0  0  0  0  0  0  0  0  0  0  0  0
  -10.3031  -17.8985   11.4902 C   0  0  0  0  0  0  0  0  0  0  0  0
   -9.1673  -18.4974   10.9931 C   0  0  0  0  0  0  0  0  0  0  0  0
   -8.1448  -17.6055   11.0758 O   0  0  0  0  0  0  0  0  0  0  0  0
   -8.7110  -16.4917   11.6237 C   0  0  0  0  0  0  0  0  0  0  0  0
   -9.9933  -16.6110   11.8915 N   0  0  0  0  0  0  0  0  0  0  0  0
   -7.9611  -15.3718   11.8549 N   0  0  0  0  0  0  0  0  0  0  0  0
   -8.5046  -14.1249   12.0676 C   0  0  0  0  0  0  0  0  0  0  0  0
   -9.6950  -13.8313   12.1035 O   0  0  0  0  0  0  0  0  0  0  0  0
   -7.4448  -13.0785   12.3021 C   0  0  0  0  0  0  0  0  0  0  0  0
  1  2  1  0
  2  3  1  0
  3  4  1  0
  4  5  2  0
  4  6  1  0
  6  7  2  0
  6 10  1  0
  7  8  1  0
  8  9  1  0
  9 10  2  0
  9 11  1  0
 11 12  1  0
 12 13  2  0
 12 14  1  0
M  END
>  <Gold.Gold.Protein.RotatedWaterAtoms>  (418) 


>  <Gold.Id.Protein>  (418) 


>  <Gold.PLP.Chemscore.CHOScore>  (418) 
0.0000

>  <Gold.PLP.Chemscore.Hbond>  (418) 
2.0000

>  <Gold.PLP.Chemscore.Internal.Correction>  (418) 
0.0053

>  <Gold.PLP.Chemscore.Metal>  (418) 
0.0000

>  <Gold.PLP.Fitness>  (418) 
36.8047

>  <Gold.PLP.PLP>  (418) 
-32.7996

>  <Gold.PLP.ligand.clash>  (418) 
0.0000

>  <Gold.PLP.ligand.torsion>  (418) 
1.0001

>  <Gold.PLP.part.buried>  (418) 
-6.5206

>  <Gold.PLP.part.hbond>  (418) 
-2.9156

>  <Gold.PLP.part.metal>  (418) 
0.0000

>  <Gold.PLP.part.nonpolar>  (418) 
-23.4080

>  <Gold.PLP.part.repulsive>  (418) 
0.3100

>  <Gold.Protein.RotatedAtoms>  (418) 


>  <Gold.Protein.RotatedTorsions>  (418) 


>  <Gold.Protein.RotatedWaterAtoms>  (418) 


>  <Gold.Version>  (418) 
5.3.0

>  <PLP.Chemscore.CHOScore>  (418) 


>  <PLP.Chemscore.Hbond>  (418) 


>  <PLP.Chemscore.Internal.Correction>  (418) 


>  <PLP.Chemscore.Metal>  (418) 


>  <PLP.Fitness>  (418) 


>  <PLP.PLP>  (418) 


>  <PLP.ligand.clash>  (418) 


>  <PLP.ligand.torsion>  (418) 


>  <PLP.part.buried>  (418) 


>  <PLP.part.hbond>  (418) 


>  <PLP.part.metal>  (418) 


>  <PLP.part.nonpolar>  (418) 


>  <PLP.part.repulsive>  (418) 


>  <RMSD>  (418) 
0.499949349045

>  <Torsion>  (418) 
159.973716791

>  <TorsionO>  (418) 
19.1052109979

>  <TorsionR>  (418) 
179.078927789

>  <Version>  (418) 


>  <product>  (418) 
23|Compound_12|Compounds_3D_F|sdf|5|dock4|1

>  <rmsd>  (418) 
-1

$$$$
1884|M3006_1781|Aromatic_primary_amines_F|sdf|361|dock3|1
     RDKit          3D

 31 34  0  0  0  0  0  0  0  0999 V2000
  -14.4210  -19.8971    8.7934 C   0  0  0  0  0  0  0  0  0  0  0  0
  -13.9762  -19.4927   10.1894 C   0  0  0  0  0  0  0  0  0  0  0  0
  -14.1356  -20.6409   11.1817 C   0  0  0  0  0  0  0  0  0  0  0  0
  -13.5197  -20.3070   12.5189 C   0  0  0  0  0  0  0  0  0  0  0  0
  -12.9307  -19.2724   12.7954 O   0  0  0  0  0  0  0  0  0  0  0  0
  -13.7110  -21.3451   13.3845 O   0  0  0  0  0  0  0  0  0  0  0  0
  -12.9425  -21.2698   14.5900 C   0  0  0  0  0  0  0  0  0  0  0  0
  -12.8849  -22.6189   15.2889 C   0  0  0  0  0  0  0  0  0  0  0  0
  -11.6552  -22.4172   16.1494 C   0  0  0  0  0  0  0  0  0  0  0  0
  -11.2420  -23.7410   16.7624 C   0  0  0  0  0  0  0  0  0  0  0  0
  -12.3024  -24.2223   17.5862 O   0  0  0  0  0  0  0  0  0  0  0  0
  -13.7888  -24.3384   16.9603 P   0  0  0  0  0  0  0  0  0  0  0  0
  -14.8775  -24.6795   17.9243 O   0  0  0  0  0  0  0  0  0  0  0  0
  -13.9839  -22.9641   16.1174 O   0  0  0  0  0  0  0  0  0  0  0  0
  -13.5991  -25.4435   15.8075 O   0  0  0  0  0  0  0  0  0  0  0  0
  -10.6922  -21.8161   15.2889 O   0  0  0  0  0  0  0  0  0  0  0  0
  -11.4338  -20.9664   14.3653 C   0  0  0  0  0  0  0  0  0  0  0  0
  -10.9052  -21.2017   13.0342 N   0  0  0  0  0  0  0  0  0  0  0  0
  -10.7814  -22.4114   12.4013 C   0  0  0  0  0  0  0  0  0  0  0  0
  -10.2640  -22.2918   11.1953 N   0  0  0  0  0  0  0  0  0  0  0  0
  -10.0274  -20.9476   11.0424 C   0  0  0  0  0  0  0  0  0  0  0  0
  -10.4203  -20.2487   12.1733 C   0  0  0  0  0  0  0  0  0  0  0  0
  -10.3338  -18.9216   12.3641 N   0  0  0  0  0  0  0  0  0  0  0  0
   -9.8057  -18.2730   11.3024 C   0  0  0  0  0  0  0  0  0  0  0  0
   -9.3808  -18.8370   10.1545 N   0  0  0  0  0  0  0  0  0  0  0  0
   -9.4895  -20.1691   10.0244 C   0  0  0  0  0  0  0  0  0  0  0  0
   -9.0330  -20.6622    8.8349 O   0  0  0  0  0  0  0  0  0  0  0  0
   -9.7222  -16.8901   11.4793 N   0  0  0  0  0  0  0  0  0  0  0  0
   -8.5796  -16.1798   11.7761 C   0  0  0  0  0  0  0  0  0  0  0  0
   -7.4445  -16.6221   11.9131 O   0  0  0  0  0  0  0  0  0  0  0  0
   -8.8524  -14.7024   11.8973 C   0  0  0  0  0  0  0  0  0  0  0  0
  1  2  1  0
  2  3  1  0
  3  4  1  0
  4  5  2  0
  4  6  1  0
  6  7  1  0
  7  8  1  0
  7 17  1  0
  8  9  1  0
  8 14  1  0
  9 10  1  0
  9 16  1  0
 10 11  1  0
 11 12  1  0
 12 13  2  0
 12 14  1  0
 12 15  1  0
 16 17  1  0
 17 18  1  0
 18 19  1  0
 18 22  1  0
 19 20  2  0
 20 21  1  0
 21 22  2  0
 21 26  1  0
 22 23  1  0
 23 24  2  0
 24 25  1  0
 24 28  1  0
 25 26  2  0
 26 27  1  0
 28 29  1  0
 29 30  2  0
 29 31  1  0
M  END
>  <Gold.Gold.Protein.RotatedWaterAtoms>  (419) 


>  <Gold.Id.Protein>  (419) 


>  <Gold.PLP.Chemscore.CHOScore>  (419) 
0.0000

>  <Gold.PLP.Chemscore.Hbond>  (419) 
1.2080

>  <Gold.PLP.Chemscore.Internal.Correction>  (419) 
0.1232

>  <Gold.PLP.Chemscore.Metal>  (419) 
0.0000

>  <Gold.PLP.Fitness>  (419) 
47.7145

>  <Gold.PLP.PLP>  (419) 
-46.0218

>  <Gold.PLP.ligand.clash>  (419) 
0.0000

>  <Gold.PLP.ligand.torsion>  (419) 
1.0272

>  <Gold.PLP.part.buried>  (419) 
-2.2958

>  <Gold.PLP.part.hbond>  (419) 
-4.0214

>  <Gold.PLP.part.metal>  (419) 
0.0000

>  <Gold.PLP.part.nonpolar>  (419) 
-41.4699

>  <Gold.PLP.part.repulsive>  (419) 
0.9524

>  <Gold.Protein.RotatedAtoms>  (419) 


>  <Gold.Protein.RotatedTorsions>  (419) 


>  <Gold.Protein.RotatedWaterAtoms>  (419) 


>  <Gold.Version>  (419) 
5.3.0

>  <PLP.Chemscore.CHOScore>  (419) 


>  <PLP.Chemscore.Hbond>  (419) 


>  <PLP.Chemscore.Internal.Correction>  (419) 


>  <PLP.Chemscore.Metal>  (419) 


>  <PLP.Fitness>  (419) 


>  <PLP.PLP>  (419) 


>  <PLP.ligand.clash>  (419) 


>  <PLP.ligand.torsion>  (419) 


>  <PLP.part.buried>  (419) 


>  <PLP.part.hbond>  (419) 


>  <PLP.part.metal>  (419) 


>  <PLP.part.nonpolar>  (419) 


>  <PLP.part.repulsive>  (419) 


>  <RMSD>  (419) 
0.291955871297

>  <Torsion>  (419) 
171.923704933

>  <TorsionO>  (419) 
6.03609353985

>  <TorsionR>  (419) 
177.959798473

>  <Version>  (419) 


>  <product>  (419) 
23|Compound_12|Compounds_3D_F|sdf|5|dock4|1

>  <rmsd>  (419) 
-1

$$$$
193|32168_281|Aromatic_primary_amines_F|sdf|39|dock6|1
     RDKit          3D

 23 25  0  0  0  0  0  0  0  0999 V2000
   -7.8439  -12.1461   11.8919 C   0  0  0  0  0  0  0  0  0  0  0  0
   -8.5691  -13.4472   11.6781 C   0  0  0  0  0  0  0  0  0  0  0  0
   -9.7886  -13.4981   11.5208 O   0  0  0  0  0  0  0  0  0  0  0  0
   -7.7264  -14.5390   11.7020 N   0  0  0  0  0  0  0  0  0  0  0  0
   -8.1889  -15.8197   11.5323 C   0  0  0  0  0  0  0  0  0  0  0  0
   -9.4747  -16.2039   11.8163 N   0  0  0  0  0  0  0  0  0  0  0  0
   -9.5964  -17.5375   11.5379 C   0  0  0  0  0  0  0  0  0  0  0  0
  -10.6643  -18.4283   11.6415 C   0  0  0  0  0  0  0  0  0  0  0  0
  -10.4051  -19.7586   11.2778 C   0  0  0  0  0  0  0  0  0  0  0  0
   -9.1530  -20.1507   10.7795 C   0  0  0  0  0  0  0  0  0  0  0  0
   -8.1017  -19.2294   10.6839 C   0  0  0  0  0  0  0  0  0  0  0  0
   -8.3349  -17.9032   11.0783 C   0  0  0  0  0  0  0  0  0  0  0  0
   -7.4773  -16.8281   11.0838 N   0  0  0  0  0  0  0  0  0  0  0  0
   -8.8530  -21.7658   10.2429 Cl  0  0  0  0  0  0  0  0  0  0  0  0
  -11.4669  -20.6323   11.3734 O   0  0  0  0  0  0  0  0  0  0  0  0
  -12.5262  -20.4408   10.5053 C   0  0  0  0  0  0  0  0  0  0  0  0
  -13.3188  -19.2846   10.5304 C   0  0  0  0  0  0  0  0  0  0  0  0
  -14.3665  -19.1344    9.6224 C   0  0  0  0  0  0  0  0  0  0  0  0
  -14.6219  -20.1279    8.6796 C   0  0  0  0  0  0  0  0  0  0  0  0
  -13.8238  -21.2756    8.6345 C   0  0  0  0  0  0  0  0  0  0  0  0
  -12.7674  -21.4342    9.5416 C   0  0  0  0  0  0  0  0  0  0  0  0
  -11.7588  -22.8458    9.4996 Cl  0  0  0  0  0  0  0  0  0  0  0  0
  -14.1988  -22.4584    7.4296 Cl  0  0  0  0  0  0  0  0  0  0  0  0
  1  2  1  0
  2  3  2  0
  2  4  1  0
  4  5  1  0
  5  6  1  0
  5 13  2  0
  6  7  1  0
  7  8  2  0
  7 12  1  0
  8  9  1  0
  9 10  2  0
  9 15  1  0
 10 11  1  0
 10 14  1  0
 11 12  2  0
 12 13  1  0
 15 16  1  0
 16 17  2  0
 16 21  1  0
 17 18  1  0
 18 19  2  0
 19 20  1  0
 20 21  2  0
 20 23  1  0
 21 22  1  0
M  END
>  <Gold.Gold.Protein.RotatedWaterAtoms>  (420) 


>  <Gold.Id.Protein>  (420) 


>  <Gold.PLP.Chemscore.CHOScore>  (420) 
0.0000

>  <Gold.PLP.Chemscore.Hbond>  (420) 
1.0000

>  <Gold.PLP.Chemscore.Internal.Correction>  (420) 
0.0086

>  <Gold.PLP.Chemscore.Metal>  (420) 
0.0000

>  <Gold.PLP.Fitness>  (420) 
50.7139

>  <Gold.PLP.PLP>  (420) 
-48.1706

>  <Gold.PLP.ligand.clash>  (420) 
0.0000

>  <Gold.PLP.ligand.torsion>  (420) 
0.2327

>  <Gold.PLP.part.buried>  (420) 
-6.5205

>  <Gold.PLP.part.hbond>  (420) 
-2.0000

>  <Gold.PLP.part.metal>  (420) 
0.0000

>  <Gold.PLP.part.nonpolar>  (420) 
-39.3857

>  <Gold.PLP.part.repulsive>  (420) 
0.3298

>  <Gold.Protein.RotatedAtoms>  (420) 


>  <Gold.Protein.RotatedTorsions>  (420) 


>  <Gold.Protein.RotatedWaterAtoms>  (420) 


>  <Gold.Version>  (420) 
5.3.0

>  <PLP.Chemscore.CHOScore>  (420) 


>  <PLP.Chemscore.Hbond>  (420) 


>  <PLP.Chemscore.Internal.Correction>  (420) 


>  <PLP.Chemscore.Metal>  (420) 


>  <PLP.Fitness>  (420) 


>  <PLP.PLP>  (420) 


>  <PLP.ligand.clash>  (420) 


>  <PLP.ligand.torsion>  (420) 


>  <PLP.part.buried>  (420) 


>  <PLP.part.hbond>  (420) 


>  <PLP.part.metal>  (420) 


>  <PLP.part.nonpolar>  (420) 


>  <PLP.part.repulsive>  (420) 


>  <RMSD>  (420) 
0.439733510035

>  <Torsion>  (420) 
177.672185574

>  <TorsionO>  (420) 
4.31728583372

>  <TorsionR>  (420) 
173.35489974

>  <Version>  (420) 


>  <product>  (420) 
23|Compound_12|Compounds_3D_F|sdf|5|dock4|1

>  <rmsd>  (420) 
-1

$$$$
68|Compound_25|Compounds_3D_F|sdf|11|dock6|1
     RDKit          3D

 10  9  0  0  0  0  0  0  0  0999 V2000
   -6.2141  -10.3347   12.5099 O   0  0  0  0  0  0  0  0  0  0  0  0
   -6.5377  -11.5966   12.1896 C   0  0  0  0  0  0  0  0  0  0  0  0
   -7.6782  -11.8742   11.9003 O   0  0  0  0  0  0  0  0  0  0  0  0
   -5.4794  -12.6697   12.1912 C   0  0  0  0  0  0  0  0  0  0  0  0
   -4.7863  -12.6551   13.4413 O   0  0  0  0  0  0  0  0  0  0  0  0
   -6.1390  -14.0356   11.9894 C   0  0  0  0  0  0  0  0  0  0  0  0
   -5.1142  -15.0283   11.6565 N   0  0  0  0  0  0  0  0  0  0  0  0
   -5.1169  -16.2312   12.2645 C   0  0  0  0  0  0  0  0  0  0  0  0
   -5.9682  -16.4909   13.0879 O   0  0  0  0  0  0  0  0  0  0  0  0
   -4.0193  -17.2942   11.9075 B   0  0  0  0  0  0  0  0  0  0  0  0
  1  2  1  0
  2  3  2  0
  2  4  1  0
  4  5  1  0
  4  6  1  0
  6  7  1  0
  7  8  1  0
  8  9  2  0
  8 10  1  0
M  END
>  <Gold.Gold.Protein.RotatedWaterAtoms>  (421) 


>  <Gold.Id.Protein>  (421) 


>  <Gold.PLP.Chemscore.CHOScore>  (421) 
0.0000

>  <Gold.PLP.Chemscore.Hbond>  (421) 
2.0000

>  <Gold.PLP.Chemscore.Internal.Correction>  (421) 
0.0006

>  <Gold.PLP.Chemscore.Metal>  (421) 
0.0000

>  <Gold.PLP.Fitness>  (421) 
35.1013

>  <Gold.PLP.PLP>  (421) 
-29.7118

>  <Gold.PLP.ligand.clash>  (421) 
0.0000

>  <Gold.PLP.ligand.torsion>  (421) 
0.3055

>  <Gold.PLP.part.buried>  (421) 
-6.8185

>  <Gold.PLP.part.hbond>  (421) 
-5.4818

>  <Gold.PLP.part.metal>  (421) 
0.0000

>  <Gold.PLP.part.nonpolar>  (421) 
-17.5892

>  <Gold.PLP.part.repulsive>  (421) 
0.2580

>  <Gold.Protein.RotatedAtoms>  (421) 


>  <Gold.Protein.RotatedTorsions>  (421) 


>  <Gold.Protein.RotatedWaterAtoms>  (421) 


>  <Gold.Version>  (421) 
5.3.0

>  <PLP.Chemscore.CHOScore>  (421) 


>  <PLP.Chemscore.Hbond>  (421) 


>  <PLP.Chemscore.Internal.Correction>  (421) 


>  <PLP.Chemscore.Metal>  (421) 


>  <PLP.Fitness>  (421) 


>  <PLP.PLP>  (421) 


>  <PLP.ligand.clash>  (421) 


>  <PLP.ligand.torsion>  (421) 


>  <PLP.part.buried>  (421) 


>  <PLP.part.hbond>  (421) 


>  <PLP.part.metal>  (421) 


>  <PLP.part.nonpolar>  (421) 


>  <PLP.part.repulsive>  (421) 


>  <Version>  (421) 


$$$$
94|664022_40|Aromatic_carboxylic_acids_F|sdf|24|dock1|1
     RDKit          3D

 12 12  0  0  0  0  0  0  0  0999 V2000
   -8.2596  -17.1212   11.4595 C   0  0  0  0  0  0  0  0  0  0  0  0
   -7.6366  -15.8367   11.6688 N   0  0  0  0  0  0  0  0  0  0  0  0
   -8.3409  -14.6553   11.5719 C   0  0  0  0  0  0  0  0  0  0  0  0
   -9.5296  -14.5547   11.2978 O   0  0  0  0  0  0  0  0  0  0  0  0
   -7.5420  -13.4431   11.8503 C   0  0  0  0  0  0  0  0  0  0  0  0
   -8.1627  -12.1983   11.6738 C   0  0  0  0  0  0  0  0  0  0  0  0
   -7.4390  -11.0301   11.9055 C   0  0  0  0  0  0  0  0  0  0  0  0
   -6.1069  -11.0910   12.3103 C   0  0  0  0  0  0  0  0  0  0  0  0
   -5.4897  -12.3324   12.4853 C   0  0  0  0  0  0  0  0  0  0  0  0
   -6.2035  -13.5136   12.2549 C   0  0  0  0  0  0  0  0  0  0  0  0
   -5.3062  -15.1564   12.5638 Br  0  0  0  0  0  0  0  0  0  0  0  0
   -8.1960   -9.5005   11.6887 Cl  0  0  0  0  0  0  0  0  0  0  0  0
  1  2  1  0
  2  3  1  0
  3  4  2  0
  3  5  1  0
  5  6  2  0
  5 10  1  0
  6  7  1  0
  7  8  2  0
  7 12  1  0
  8  9  1  0
  9 10  2  0
 10 11  1  0
M  END
>  <Gold.Gold.Protein.RotatedWaterAtoms>  (422) 


>  <Gold.Id.Protein>  (422) 


>  <Gold.PLP.Chemscore.CHOScore>  (422) 
0.0000

>  <Gold.PLP.Chemscore.Hbond>  (422) 
0.4160

>  <Gold.PLP.Chemscore.Internal.Correction>  (422) 
0.0004

>  <Gold.PLP.Chemscore.Metal>  (422) 
0.0000

>  <Gold.PLP.Fitness>  (422) 
48.9046

>  <Gold.PLP.PLP>  (422) 
-47.6744

>  <Gold.PLP.ligand.clash>  (422) 
0.0000

>  <Gold.PLP.ligand.torsion>  (422) 
0.0091

>  <Gold.PLP.part.buried>  (422) 
-7.3578

>  <Gold.PLP.part.hbond>  (422) 
-0.5127

>  <Gold.PLP.part.metal>  (422) 
0.0000

>  <Gold.PLP.part.nonpolar>  (422) 
-40.3098

>  <Gold.PLP.part.repulsive>  (422) 
0.1684

>  <Gold.Protein.RotatedAtoms>  (422) 


>  <Gold.Protein.RotatedTorsions>  (422) 


>  <Gold.Protein.RotatedWaterAtoms>  (422) 


>  <Gold.Version>  (422) 
5.3.0

>  <PLP.Chemscore.CHOScore>  (422) 


>  <PLP.Chemscore.Hbond>  (422) 


>  <PLP.Chemscore.Internal.Correction>  (422) 


>  <PLP.Chemscore.Metal>  (422) 


>  <PLP.Fitness>  (422) 


>  <PLP.PLP>  (422) 


>  <PLP.ligand.clash>  (422) 


>  <PLP.ligand.torsion>  (422) 


>  <PLP.part.buried>  (422) 


>  <PLP.part.hbond>  (422) 


>  <PLP.part.metal>  (422) 


>  <PLP.part.nonpolar>  (422) 


>  <PLP.part.repulsive>  (422) 


>  <RMSD>  (422) 
0.30972197429

>  <Torsion>  (422) 
172.929186758

>  <TorsionO>  (422) 
24.4968065243

>  <TorsionR>  (422) 
162.574006718

>  <Version>  (422) 


>  <product>  (422) 
68|Compound_25|Compounds_3D_F|sdf|11|dock6|1

>  <rmsd>  (422) 
-1

$$$$
110|565385_49|Aromatic_carboxylic_acids_F|sdf|29|dock1|1
     RDKit          3D

 13 13  0  0  0  0  0  0  0  0999 V2000
  -10.1118  -17.9021   11.6320 C   0  0  0  0  0  0  0  0  0  0  0  0
   -9.7537  -16.5043   11.6546 N   0  0  0  0  0  0  0  0  0  0  0  0
   -8.4330  -16.1187   11.7930 C   0  0  0  0  0  0  0  0  0  0  0  0
   -7.5159  -16.9298   11.9008 O   0  0  0  0  0  0  0  0  0  0  0  0
   -8.1234  -14.6552   11.8105 C   0  0  0  0  0  0  0  0  0  0  0  0
   -9.0636  -13.6551   11.5375 C   0  0  0  0  0  0  0  0  0  0  0  0
   -8.6966  -12.3009   11.5726 C   0  0  0  0  0  0  0  0  0  0  0  0
   -7.3879  -11.9195   11.8809 C   0  0  0  0  0  0  0  0  0  0  0  0
   -6.4486  -12.9235   12.1551 C   0  0  0  0  0  0  0  0  0  0  0  0
   -6.8098  -14.2750   12.1207 C   0  0  0  0  0  0  0  0  0  0  0  0
   -4.6444  -12.5025   12.5849 Br  0  0  0  0  0  0  0  0  0  0  0  0
   -6.9476  -10.6242   11.9372 O   0  0  0  0  0  0  0  0  0  0  0  0
   -7.9020   -9.5910   11.7256 C   0  0  0  0  0  0  0  0  0  0  0  0
  1  2  1  0
  2  3  1  0
  3  4  2  0
  3  5  1  0
  5  6  2  0
  5 10  1  0
  6  7  1  0
  7  8  2  0
  8  9  1  0
  8 12  1  0
  9 10  2  0
  9 11  1  0
 12 13  1  0
M  END
>  <Gold.Gold.Protein.RotatedWaterAtoms>  (423) 


>  <Gold.Id.Protein>  (423) 


>  <Gold.PLP.Chemscore.CHOScore>  (423) 
0.0000

>  <Gold.PLP.Chemscore.Hbond>  (423) 
1.0000

>  <Gold.PLP.Chemscore.Internal.Correction>  (423) 
0.0000

>  <Gold.PLP.Chemscore.Metal>  (423) 
0.0000

>  <Gold.PLP.Fitness>  (423) 
43.9775

>  <Gold.PLP.PLP>  (423) 
-41.0517

>  <Gold.PLP.ligand.clash>  (423) 
0.0000

>  <Gold.PLP.ligand.torsion>  (423) 
0.0371

>  <Gold.PLP.part.buried>  (423) 
-3.7367

>  <Gold.PLP.part.hbond>  (423) 
-1.0000

>  <Gold.PLP.part.metal>  (423) 
0.0000

>  <Gold.PLP.part.nonpolar>  (423) 
-36.7483

>  <Gold.PLP.part.repulsive>  (423) 
0.4054

>  <Gold.Protein.RotatedAtoms>  (423) 


>  <Gold.Protein.RotatedTorsions>  (423) 


>  <Gold.Protein.RotatedWaterAtoms>  (423) 


>  <Gold.Version>  (423) 
5.3.0

>  <PLP.Chemscore.CHOScore>  (423) 


>  <PLP.Chemscore.Hbond>  (423) 


>  <PLP.Chemscore.Internal.Correction>  (423) 


>  <PLP.Chemscore.Metal>  (423) 


>  <PLP.Fitness>  (423) 


>  <PLP.PLP>  (423) 


>  <PLP.ligand.clash>  (423) 


>  <PLP.ligand.torsion>  (423) 


>  <PLP.part.buried>  (423) 


>  <PLP.part.hbond>  (423) 


>  <PLP.part.metal>  (423) 


>  <PLP.part.nonpolar>  (423) 


>  <PLP.part.repulsive>  (423) 


>  <RMSD>  (423) 
0.319376411377

>  <Torsion>  (423) 
169.460450784

>  <TorsionO>  (423) 
9.7963905484

>  <TorsionR>  (423) 
179.256841332

>  <Version>  (423) 


>  <product>  (423) 
68|Compound_25|Compounds_3D_F|sdf|11|dock6|1

>  <rmsd>  (423) 
-1

$$$$
128|137677_56|Aromatic_carboxylic_acids_F|sdf|33|dock1|1
     RDKit          3D

 11 11  0  0  0  0  0  0  0  0999 V2000
   -8.6116  -16.1544   11.8887 C   0  0  0  0  0  0  0  0  0  0  0  0
   -7.9978  -14.8484   11.9215 N   0  0  0  0  0  0  0  0  0  0  0  0
   -8.7778  -13.7008   11.8756 C   0  0  0  0  0  0  0  0  0  0  0  0
  -10.0002  -13.7896   11.8139 O   0  0  0  0  0  0  0  0  0  0  0  0
   -8.0808  -12.3609   11.9017 C   0  0  0  0  0  0  0  0  0  0  0  0
   -8.7916  -11.1851   11.5813 C   0  0  0  0  0  0  0  0  0  0  0  0
   -8.1781   -9.9267   11.5989 C   0  0  0  0  0  0  0  0  0  0  0  0
   -6.8391   -9.8089   11.9369 C   0  0  0  0  0  0  0  0  0  0  0  0
   -6.1124  -10.9502   12.2575 C   0  0  0  0  0  0  0  0  0  0  0  0
   -6.7171  -12.2196   12.2428 C   0  0  0  0  0  0  0  0  0  0  0  0
   -5.5419  -13.6455   12.7121 Br  0  0  0  0  0  0  0  0  0  0  0  0
  1  2  1  0
  2  3  1  0
  3  4  2  0
  3  5  1  0
  5  6  2  0
  5 10  1  0
  6  7  1  0
  7  8  2  0
  8  9  1  0
  9 10  2  0
 10 11  1  0
M  END
>  <Gold.Gold.Protein.RotatedWaterAtoms>  (424) 


>  <Gold.Id.Protein>  (424) 


>  <Gold.PLP.Chemscore.CHOScore>  (424) 
0.0000

>  <Gold.PLP.Chemscore.Hbond>  (424) 
1.0000

>  <Gold.PLP.Chemscore.Internal.Correction>  (424) 
0.0000

>  <Gold.PLP.Chemscore.Metal>  (424) 
0.0000

>  <Gold.PLP.Fitness>  (424) 
45.2899

>  <Gold.PLP.PLP>  (424) 
-42.4444

>  <Gold.PLP.ligand.clash>  (424) 
0.0000

>  <Gold.PLP.ligand.torsion>  (424) 
0.0772

>  <Gold.PLP.part.buried>  (424) 
-6.4690

>  <Gold.PLP.part.hbond>  (424) 
-0.6863

>  <Gold.PLP.part.metal>  (424) 
0.0000

>  <Gold.PLP.part.nonpolar>  (424) 
-34.8280

>  <Gold.PLP.part.repulsive>  (424) 
0.1963

>  <Gold.Protein.RotatedAtoms>  (424) 


>  <Gold.Protein.RotatedTorsions>  (424) 


>  <Gold.Protein.RotatedWaterAtoms>  (424) 


>  <Gold.Version>  (424) 
5.3.0

>  <PLP.Chemscore.CHOScore>  (424) 


>  <PLP.Chemscore.Hbond>  (424) 


>  <PLP.Chemscore.Internal.Correction>  (424) 


>  <PLP.Chemscore.Metal>  (424) 


>  <PLP.Fitness>  (424) 


>  <PLP.PLP>  (424) 


>  <PLP.ligand.clash>  (424) 


>  <PLP.ligand.torsion>  (424) 


>  <PLP.part.buried>  (424) 


>  <PLP.part.hbond>  (424) 


>  <PLP.part.metal>  (424) 


>  <PLP.part.nonpolar>  (424) 


>  <PLP.part.repulsive>  (424) 


>  <RMSD>  (424) 
0.428070490903

>  <Torsion>  (424) 
152.444048788

>  <TorsionO>  (424) 
39.0580871276

>  <TorsionR>  (424) 
168.497864085

>  <Version>  (424) 


>  <product>  (424) 
68|Compound_25|Compounds_3D_F|sdf|11|dock6|1

>  <rmsd>  (424) 
-1

$$$$
974|750794_1404|Aromatic_primary_amines_F|sdf|194|dock3|1
     RDKit          3D

 14 14  0  0  0  0  0  0  0  0999 V2000
  -13.6355  -18.1936    9.4145 C   0  0  0  0  0  0  0  0  0  0  0  0
  -13.2544  -19.4497   10.1732 C   0  0  0  0  0  0  0  0  0  0  0  0
  -11.8731  -19.3506   10.5383 O   0  0  0  0  0  0  0  0  0  0  0  0
  -11.6148  -18.5085   11.5823 C   0  0  0  0  0  0  0  0  0  0  0  0
  -12.3947  -18.2810   12.5004 O   0  0  0  0  0  0  0  0  0  0  0  0
  -10.3031  -17.8985   11.4902 C   0  0  0  0  0  0  0  0  0  0  0  0
   -9.1673  -18.4974   10.9931 C   0  0  0  0  0  0  0  0  0  0  0  0
   -8.1448  -17.6055   11.0758 O   0  0  0  0  0  0  0  0  0  0  0  0
   -8.7110  -16.4917   11.6237 C   0  0  0  0  0  0  0  0  0  0  0  0
   -9.9933  -16.6110   11.8915 N   0  0  0  0  0  0  0  0  0  0  0  0
   -7.9611  -15.3718   11.8549 N   0  0  0  0  0  0  0  0  0  0  0  0
   -8.5046  -14.1249   12.0676 C   0  0  0  0  0  0  0  0  0  0  0  0
   -9.6950  -13.8313   12.1035 O   0  0  0  0  0  0  0  0  0  0  0  0
   -7.4448  -13.0785   12.3021 C   0  0  0  0  0  0  0  0  0  0  0  0
  1  2  1  0
  2  3  1  0
  3  4  1  0
  4  5  2  0
  4  6  1  0
  6  7  2  0
  6 10  1  0
  7  8  1  0
  8  9  1  0
  9 10  2  0
  9 11  1  0
 11 12  1  0
 12 13  2  0
 12 14  1  0
M  END
>  <Gold.Gold.Protein.RotatedWaterAtoms>  (425) 


>  <Gold.Id.Protein>  (425) 


>  <Gold.PLP.Chemscore.CHOScore>  (425) 
0.0000

>  <Gold.PLP.Chemscore.Hbond>  (425) 
2.0000

>  <Gold.PLP.Chemscore.Internal.Correction>  (425) 
0.0053

>  <Gold.PLP.Chemscore.Metal>  (425) 
0.0000

>  <Gold.PLP.Fitness>  (425) 
36.8047

>  <Gold.PLP.PLP>  (425) 
-32.7996

>  <Gold.PLP.ligand.clash>  (425) 
0.0000

>  <Gold.PLP.ligand.torsion>  (425) 
1.0001

>  <Gold.PLP.part.buried>  (425) 
-6.5206

>  <Gold.PLP.part.hbond>  (425) 
-2.9156

>  <Gold.PLP.part.metal>  (425) 
0.0000

>  <Gold.PLP.part.nonpolar>  (425) 
-23.4080

>  <Gold.PLP.part.repulsive>  (425) 
0.3100

>  <Gold.Protein.RotatedAtoms>  (425) 


>  <Gold.Protein.RotatedTorsions>  (425) 


>  <Gold.Protein.RotatedWaterAtoms>  (425) 


>  <Gold.Version>  (425) 
5.3.0

>  <PLP.Chemscore.CHOScore>  (425) 


>  <PLP.Chemscore.Hbond>  (425) 


>  <PLP.Chemscore.Internal.Correction>  (425) 


>  <PLP.Chemscore.Metal>  (425) 


>  <PLP.Fitness>  (425) 


>  <PLP.PLP>  (425) 


>  <PLP.ligand.clash>  (425) 


>  <PLP.ligand.torsion>  (425) 


>  <PLP.part.buried>  (425) 


>  <PLP.part.hbond>  (425) 


>  <PLP.part.metal>  (425) 


>  <PLP.part.nonpolar>  (425) 


>  <PLP.part.repulsive>  (425) 


>  <RMSD>  (425) 
0.499949349045

>  <Torsion>  (425) 
159.973716791

>  <TorsionO>  (425) 
19.1052109979

>  <TorsionR>  (425) 
179.078927789

>  <Version>  (425) 


>  <product>  (425) 
68|Compound_25|Compounds_3D_F|sdf|11|dock6|1

>  <rmsd>  (425) 
-1

$$$$
1884|M3006_1781|Aromatic_primary_amines_F|sdf|361|dock3|1
     RDKit          3D

 31 34  0  0  0  0  0  0  0  0999 V2000
  -14.4210  -19.8971    8.7934 C   0  0  0  0  0  0  0  0  0  0  0  0
  -13.9762  -19.4927   10.1894 C   0  0  0  0  0  0  0  0  0  0  0  0
  -14.1356  -20.6409   11.1817 C   0  0  0  0  0  0  0  0  0  0  0  0
  -13.5197  -20.3070   12.5189 C   0  0  0  0  0  0  0  0  0  0  0  0
  -12.9307  -19.2724   12.7954 O   0  0  0  0  0  0  0  0  0  0  0  0
  -13.7110  -21.3451   13.3845 O   0  0  0  0  0  0  0  0  0  0  0  0
  -12.9425  -21.2698   14.5900 C   0  0  0  0  0  0  0  0  0  0  0  0
  -12.8849  -22.6189   15.2889 C   0  0  0  0  0  0  0  0  0  0  0  0
  -11.6552  -22.4172   16.1494 C   0  0  0  0  0  0  0  0  0  0  0  0
  -11.2420  -23.7410   16.7624 C   0  0  0  0  0  0  0  0  0  0  0  0
  -12.3024  -24.2223   17.5862 O   0  0  0  0  0  0  0  0  0  0  0  0
  -13.7888  -24.3384   16.9603 P   0  0  0  0  0  0  0  0  0  0  0  0
  -14.8775  -24.6795   17.9243 O   0  0  0  0  0  0  0  0  0  0  0  0
  -13.9839  -22.9641   16.1174 O   0  0  0  0  0  0  0  0  0  0  0  0
  -13.5991  -25.4435   15.8075 O   0  0  0  0  0  0  0  0  0  0  0  0
  -10.6922  -21.8161   15.2889 O   0  0  0  0  0  0  0  0  0  0  0  0
  -11.4338  -20.9664   14.3653 C   0  0  0  0  0  0  0  0  0  0  0  0
  -10.9052  -21.2017   13.0342 N   0  0  0  0  0  0  0  0  0  0  0  0
  -10.7814  -22.4114   12.4013 C   0  0  0  0  0  0  0  0  0  0  0  0
  -10.2640  -22.2918   11.1953 N   0  0  0  0  0  0  0  0  0  0  0  0
  -10.0274  -20.9476   11.0424 C   0  0  0  0  0  0  0  0  0  0  0  0
  -10.4203  -20.2487   12.1733 C   0  0  0  0  0  0  0  0  0  0  0  0
  -10.3338  -18.9216   12.3641 N   0  0  0  0  0  0  0  0  0  0  0  0
   -9.8057  -18.2730   11.3024 C   0  0  0  0  0  0  0  0  0  0  0  0
   -9.3808  -18.8370   10.1545 N   0  0  0  0  0  0  0  0  0  0  0  0
   -9.4895  -20.1691   10.0244 C   0  0  0  0  0  0  0  0  0  0  0  0
   -9.0330  -20.6622    8.8349 O   0  0  0  0  0  0  0  0  0  0  0  0
   -9.7222  -16.8901   11.4793 N   0  0  0  0  0  0  0  0  0  0  0  0
   -8.5796  -16.1798   11.7761 C   0  0  0  0  0  0  0  0  0  0  0  0
   -7.4445  -16.6221   11.9131 O   0  0  0  0  0  0  0  0  0  0  0  0
   -8.8524  -14.7024   11.8973 C   0  0  0  0  0  0  0  0  0  0  0  0
  1  2  1  0
  2  3  1  0
  3  4  1  0
  4  5  2  0
  4  6  1  0
  6  7  1  0
  7  8  1  0
  7 17  1  0
  8  9  1  0
  8 14  1  0
  9 10  1  0
  9 16  1  0
 10 11  1  0
 11 12  1  0
 12 13  2  0
 12 14  1  0
 12 15  1  0
 16 17  1  0
 17 18  1  0
 18 19  1  0
 18 22  1  0
 19 20  2  0
 20 21  1  0
 21 22  2  0
 21 26  1  0
 22 23  1  0
 23 24  2  0
 24 25  1  0
 24 28  1  0
 25 26  2  0
 26 27  1  0
 28 29  1  0
 29 30  2  0
 29 31  1  0
M  END
>  <Gold.Gold.Protein.RotatedWaterAtoms>  (426) 


>  <Gold.Id.Protein>  (426) 


>  <Gold.PLP.Chemscore.CHOScore>  (426) 
0.0000

>  <Gold.PLP.Chemscore.Hbond>  (426) 
1.2080

>  <Gold.PLP.Chemscore.Internal.Correction>  (426) 
0.1232

>  <Gold.PLP.Chemscore.Metal>  (426) 
0.0000

>  <Gold.PLP.Fitness>  (426) 
47.7145

>  <Gold.PLP.PLP>  (426) 
-46.0218

>  <Gold.PLP.ligand.clash>  (426) 
0.0000

>  <Gold.PLP.ligand.torsion>  (426) 
1.0272

>  <Gold.PLP.part.buried>  (426) 
-2.2958

>  <Gold.PLP.part.hbond>  (426) 
-4.0214

>  <Gold.PLP.part.metal>  (426) 
0.0000

>  <Gold.PLP.part.nonpolar>  (426) 
-41.4699

>  <Gold.PLP.part.repulsive>  (426) 
0.9524

>  <Gold.Protein.RotatedAtoms>  (426) 


>  <Gold.Protein.RotatedTorsions>  (426) 


>  <Gold.Protein.RotatedWaterAtoms>  (426) 


>  <Gold.Version>  (426) 
5.3.0

>  <PLP.Chemscore.CHOScore>  (426) 


>  <PLP.Chemscore.Hbond>  (426) 


>  <PLP.Chemscore.Internal.Correction>  (426) 


>  <PLP.Chemscore.Metal>  (426) 


>  <PLP.Fitness>  (426) 


>  <PLP.PLP>  (426) 


>  <PLP.ligand.clash>  (426) 


>  <PLP.ligand.torsion>  (426) 


>  <PLP.part.buried>  (426) 


>  <PLP.part.hbond>  (426) 


>  <PLP.part.metal>  (426) 


>  <PLP.part.nonpolar>  (426) 


>  <PLP.part.repulsive>  (426) 


>  <RMSD>  (426) 
0.291955871297

>  <Torsion>  (426) 
171.923704933

>  <TorsionO>  (426) 
6.03609353985

>  <TorsionR>  (426) 
177.959798473

>  <Version>  (426) 


>  <product>  (426) 
68|Compound_25|Compounds_3D_F|sdf|11|dock6|1

>  <rmsd>  (426) 
-1

$$$$
193|32168_281|Aromatic_primary_amines_F|sdf|39|dock6|1
     RDKit          3D

 23 25  0  0  0  0  0  0  0  0999 V2000
   -7.8439  -12.1461   11.8919 C   0  0  0  0  0  0  0  0  0  0  0  0
   -8.5691  -13.4472   11.6781 C   0  0  0  0  0  0  0  0  0  0  0  0
   -9.7886  -13.4981   11.5208 O   0  0  0  0  0  0  0  0  0  0  0  0
   -7.7264  -14.5390   11.7020 N   0  0  0  0  0  0  0  0  0  0  0  0
   -8.1889  -15.8197   11.5323 C   0  0  0  0  0  0  0  0  0  0  0  0
   -9.4747  -16.2039   11.8163 N   0  0  0  0  0  0  0  0  0  0  0  0
   -9.5964  -17.5375   11.5379 C   0  0  0  0  0  0  0  0  0  0  0  0
  -10.6643  -18.4283   11.6415 C   0  0  0  0  0  0  0  0  0  0  0  0
  -10.4051  -19.7586   11.2778 C   0  0  0  0  0  0  0  0  0  0  0  0
   -9.1530  -20.1507   10.7795 C   0  0  0  0  0  0  0  0  0  0  0  0
   -8.1017  -19.2294   10.6839 C   0  0  0  0  0  0  0  0  0  0  0  0
   -8.3349  -17.9032   11.0783 C   0  0  0  0  0  0  0  0  0  0  0  0
   -7.4773  -16.8281   11.0838 N   0  0  0  0  0  0  0  0  0  0  0  0
   -8.8530  -21.7658   10.2429 Cl  0  0  0  0  0  0  0  0  0  0  0  0
  -11.4669  -20.6323   11.3734 O   0  0  0  0  0  0  0  0  0  0  0  0
  -12.5262  -20.4408   10.5053 C   0  0  0  0  0  0  0  0  0  0  0  0
  -13.3188  -19.2846   10.5304 C   0  0  0  0  0  0  0  0  0  0  0  0
  -14.3665  -19.1344    9.6224 C   0  0  0  0  0  0  0  0  0  0  0  0
  -14.6219  -20.1279    8.6796 C   0  0  0  0  0  0  0  0  0  0  0  0
  -13.8238  -21.2756    8.6345 C   0  0  0  0  0  0  0  0  0  0  0  0
  -12.7674  -21.4342    9.5416 C   0  0  0  0  0  0  0  0  0  0  0  0
  -11.7588  -22.8458    9.4996 Cl  0  0  0  0  0  0  0  0  0  0  0  0
  -14.1988  -22.4584    7.4296 Cl  0  0  0  0  0  0  0  0  0  0  0  0
  1  2  1  0
  2  3  2  0
  2  4  1  0
  4  5  1  0
  5  6  1  0
  5 13  2  0
  6  7  1  0
  7  8  2  0
  7 12  1  0
  8  9  1  0
  9 10  2  0
  9 15  1  0
 10 11  1  0
 10 14  1  0
 11 12  2  0
 12 13  1  0
 15 16  1  0
 16 17  2  0
 16 21  1  0
 17 18  1  0
 18 19  2  0
 19 20  1  0
 20 21  2  0
 20 23  1  0
 21 22  1  0
M  END
>  <Gold.Gold.Protein.RotatedWaterAtoms>  (427) 


>  <Gold.Id.Protein>  (427) 


>  <Gold.PLP.Chemscore.CHOScore>  (427) 
0.0000

>  <Gold.PLP.Chemscore.Hbond>  (427) 
1.0000

>  <Gold.PLP.Chemscore.Internal.Correction>  (427) 
0.0086

>  <Gold.PLP.Chemscore.Metal>  (427) 
0.0000

>  <Gold.PLP.Fitness>  (427) 
50.7139

>  <Gold.PLP.PLP>  (427) 
-48.1706

>  <Gold.PLP.ligand.clash>  (427) 
0.0000

>  <Gold.PLP.ligand.torsion>  (427) 
0.2327

>  <Gold.PLP.part.buried>  (427) 
-6.5205

>  <Gold.PLP.part.hbond>  (427) 
-2.0000

>  <Gold.PLP.part.metal>  (427) 
0.0000

>  <Gold.PLP.part.nonpolar>  (427) 
-39.3857

>  <Gold.PLP.part.repulsive>  (427) 
0.3298

>  <Gold.Protein.RotatedAtoms>  (427) 


>  <Gold.Protein.RotatedTorsions>  (427) 


>  <Gold.Protein.RotatedWaterAtoms>  (427) 


>  <Gold.Version>  (427) 
5.3.0

>  <PLP.Chemscore.CHOScore>  (427) 


>  <PLP.Chemscore.Hbond>  (427) 


>  <PLP.Chemscore.Internal.Correction>  (427) 


>  <PLP.Chemscore.Metal>  (427) 


>  <PLP.Fitness>  (427) 


>  <PLP.PLP>  (427) 


>  <PLP.ligand.clash>  (427) 


>  <PLP.ligand.torsion>  (427) 


>  <PLP.part.buried>  (427) 


>  <PLP.part.hbond>  (427) 


>  <PLP.part.metal>  (427) 


>  <PLP.part.nonpolar>  (427) 


>  <PLP.part.repulsive>  (427) 


>  <RMSD>  (427) 
0.439733510035

>  <Torsion>  (427) 
177.672185574

>  <TorsionO>  (427) 
4.31728583372

>  <TorsionR>  (427) 
173.35489974

>  <Version>  (427) 


>  <product>  (427) 
68|Compound_25|Compounds_3D_F|sdf|11|dock6|1

>  <rmsd>  (427) 
-1

$$$$
81|Compound_31|Compounds_3D_F|sdf|13|dock7|1
     RDKit          3D

 10  9  0  0  0  0  0  0  0  0999 V2000
   -4.3559  -12.1947   13.0677 O   0  0  0  0  0  0  0  0  0  0  0  0
   -5.5032  -12.6985   12.5886 C   0  0  0  0  0  0  0  0  0  0  0  0
   -6.3403  -11.9611   12.1231 O   0  0  0  0  0  0  0  0  0  0  0  0
   -5.7496  -14.1848   12.6312 C   0  0  0  0  0  0  0  0  0  0  0  0
   -4.6949  -14.8632   11.9467 O   0  0  0  0  0  0  0  0  0  0  0  0
   -7.0840  -14.5002   11.9519 C   0  0  0  0  0  0  0  0  0  0  0  0
   -7.1492  -15.9318   11.6447 N   0  0  0  0  0  0  0  0  0  0  0  0
   -8.3391  -16.5639   11.6270 C   0  0  0  0  0  0  0  0  0  0  0  0
   -9.3558  -15.9476   11.8657 O   0  0  0  0  0  0  0  0  0  0  0  0
   -8.4087  -18.0970   11.2972 B   0  0  0  0  0  0  0  0  0  0  0  0
  1  2  1  0
  2  3  2  0
  2  4  1  0
  4  5  1  0
  4  6  1  0
  6  7  1  0
  7  8  1  0
  8  9  2  0
  8 10  1  0
M  END
>  <Gold.Gold.Protein.RotatedWaterAtoms>  (428) 


>  <Gold.Id.Protein>  (428) 


>  <Gold.PLP.Chemscore.CHOScore>  (428) 
0.0000

>  <Gold.PLP.Chemscore.Hbond>  (428) 
2.4473

>  <Gold.PLP.Chemscore.Internal.Correction>  (428) 
0.0004

>  <Gold.PLP.Chemscore.Metal>  (428) 
0.0000

>  <Gold.PLP.Fitness>  (428) 
34.9244

>  <Gold.PLP.PLP>  (428) 
-28.2606

>  <Gold.PLP.ligand.clash>  (428) 
0.0000

>  <Gold.PLP.ligand.torsion>  (428) 
0.3392

>  <Gold.PLP.part.buried>  (428) 
-7.2887

>  <Gold.PLP.part.hbond>  (428) 
-5.5403

>  <Gold.PLP.part.metal>  (428) 
0.0000

>  <Gold.PLP.part.nonpolar>  (428) 
-16.3833

>  <Gold.PLP.part.repulsive>  (428) 
0.3765

>  <Gold.Protein.RotatedAtoms>  (428) 


>  <Gold.Protein.RotatedTorsions>  (428) 


>  <Gold.Protein.RotatedWaterAtoms>  (428) 


>  <Gold.Version>  (428) 
5.3.0

>  <PLP.Chemscore.CHOScore>  (428) 


>  <PLP.Chemscore.Hbond>  (428) 


>  <PLP.Chemscore.Internal.Correction>  (428) 


>  <PLP.Chemscore.Metal>  (428) 


>  <PLP.Fitness>  (428) 


>  <PLP.PLP>  (428) 


>  <PLP.ligand.clash>  (428) 


>  <PLP.ligand.torsion>  (428) 


>  <PLP.part.buried>  (428) 


>  <PLP.part.hbond>  (428) 


>  <PLP.part.metal>  (428) 


>  <PLP.part.nonpolar>  (428) 


>  <PLP.part.repulsive>  (428) 


>  <Version>  (428) 


$$$$
94|664022_40|Aromatic_carboxylic_acids_F|sdf|24|dock1|1
     RDKit          3D

 12 12  0  0  0  0  0  0  0  0999 V2000
   -8.2596  -17.1212   11.4595 C   0  0  0  0  0  0  0  0  0  0  0  0
   -7.6366  -15.8367   11.6688 N   0  0  0  0  0  0  0  0  0  0  0  0
   -8.3409  -14.6553   11.5719 C   0  0  0  0  0  0  0  0  0  0  0  0
   -9.5296  -14.5547   11.2978 O   0  0  0  0  0  0  0  0  0  0  0  0
   -7.5420  -13.4431   11.8503 C   0  0  0  0  0  0  0  0  0  0  0  0
   -8.1627  -12.1983   11.6738 C   0  0  0  0  0  0  0  0  0  0  0  0
   -7.4390  -11.0301   11.9055 C   0  0  0  0  0  0  0  0  0  0  0  0
   -6.1069  -11.0910   12.3103 C   0  0  0  0  0  0  0  0  0  0  0  0
   -5.4897  -12.3324   12.4853 C   0  0  0  0  0  0  0  0  0  0  0  0
   -6.2035  -13.5136   12.2549 C   0  0  0  0  0  0  0  0  0  0  0  0
   -5.3062  -15.1564   12.5638 Br  0  0  0  0  0  0  0  0  0  0  0  0
   -8.1960   -9.5005   11.6887 Cl  0  0  0  0  0  0  0  0  0  0  0  0
  1  2  1  0
  2  3  1  0
  3  4  2  0
  3  5  1  0
  5  6  2  0
  5 10  1  0
  6  7  1  0
  7  8  2  0
  7 12  1  0
  8  9  1  0
  9 10  2  0
 10 11  1  0
M  END
>  <Gold.Gold.Protein.RotatedWaterAtoms>  (429) 


>  <Gold.Id.Protein>  (429) 


>  <Gold.PLP.Chemscore.CHOScore>  (429) 
0.0000

>  <Gold.PLP.Chemscore.Hbond>  (429) 
0.4160

>  <Gold.PLP.Chemscore.Internal.Correction>  (429) 
0.0004

>  <Gold.PLP.Chemscore.Metal>  (429) 
0.0000

>  <Gold.PLP.Fitness>  (429) 
48.9046

>  <Gold.PLP.PLP>  (429) 
-47.6744

>  <Gold.PLP.ligand.clash>  (429) 
0.0000

>  <Gold.PLP.ligand.torsion>  (429) 
0.0091

>  <Gold.PLP.part.buried>  (429) 
-7.3578

>  <Gold.PLP.part.hbond>  (429) 
-0.5127

>  <Gold.PLP.part.metal>  (429) 
0.0000

>  <Gold.PLP.part.nonpolar>  (429) 
-40.3098

>  <Gold.PLP.part.repulsive>  (429) 
0.1684

>  <Gold.Protein.RotatedAtoms>  (429) 


>  <Gold.Protein.RotatedTorsions>  (429) 


>  <Gold.Protein.RotatedWaterAtoms>  (429) 


>  <Gold.Version>  (429) 
5.3.0

>  <PLP.Chemscore.CHOScore>  (429) 


>  <PLP.Chemscore.Hbond>  (429) 


>  <PLP.Chemscore.Internal.Correction>  (429) 


>  <PLP.Chemscore.Metal>  (429) 


>  <PLP.Fitness>  (429) 


>  <PLP.PLP>  (429) 


>  <PLP.ligand.clash>  (429) 


>  <PLP.ligand.torsion>  (429) 


>  <PLP.part.buried>  (429) 


>  <PLP.part.hbond>  (429) 


>  <PLP.part.metal>  (429) 


>  <PLP.part.nonpolar>  (429) 


>  <PLP.part.repulsive>  (429) 


>  <RMSD>  (429) 
0.30972197429

>  <Torsion>  (429) 
172.929186758

>  <TorsionO>  (429) 
24.4968065243

>  <TorsionR>  (429) 
162.574006718

>  <Version>  (429) 


>  <product>  (429) 
81|Compound_31|Compounds_3D_F|sdf|13|dock7|1

>  <rmsd>  (429) 
-1

$$$$
110|565385_49|Aromatic_carboxylic_acids_F|sdf|29|dock1|1
     RDKit          3D

 13 13  0  0  0  0  0  0  0  0999 V2000
  -10.1118  -17.9021   11.6320 C   0  0  0  0  0  0  0  0  0  0  0  0
   -9.7537  -16.5043   11.6546 N   0  0  0  0  0  0  0  0  0  0  0  0
   -8.4330  -16.1187   11.7930 C   0  0  0  0  0  0  0  0  0  0  0  0
   -7.5159  -16.9298   11.9008 O   0  0  0  0  0  0  0  0  0  0  0  0
   -8.1234  -14.6552   11.8105 C   0  0  0  0  0  0  0  0  0  0  0  0
   -9.0636  -13.6551   11.5375 C   0  0  0  0  0  0  0  0  0  0  0  0
   -8.6966  -12.3009   11.5726 C   0  0  0  0  0  0  0  0  0  0  0  0
   -7.3879  -11.9195   11.8809 C   0  0  0  0  0  0  0  0  0  0  0  0
   -6.4486  -12.9235   12.1551 C   0  0  0  0  0  0  0  0  0  0  0  0
   -6.8098  -14.2750   12.1207 C   0  0  0  0  0  0  0  0  0  0  0  0
   -4.6444  -12.5025   12.5849 Br  0  0  0  0  0  0  0  0  0  0  0  0
   -6.9476  -10.6242   11.9372 O   0  0  0  0  0  0  0  0  0  0  0  0
   -7.9020   -9.5910   11.7256 C   0  0  0  0  0  0  0  0  0  0  0  0
  1  2  1  0
  2  3  1  0
  3  4  2  0
  3  5  1  0
  5  6  2  0
  5 10  1  0
  6  7  1  0
  7  8  2  0
  8  9  1  0
  8 12  1  0
  9 10  2  0
  9 11  1  0
 12 13  1  0
M  END
>  <Gold.Gold.Protein.RotatedWaterAtoms>  (430) 


>  <Gold.Id.Protein>  (430) 


>  <Gold.PLP.Chemscore.CHOScore>  (430) 
0.0000

>  <Gold.PLP.Chemscore.Hbond>  (430) 
1.0000

>  <Gold.PLP.Chemscore.Internal.Correction>  (430) 
0.0000

>  <Gold.PLP.Chemscore.Metal>  (430) 
0.0000

>  <Gold.PLP.Fitness>  (430) 
43.9775

>  <Gold.PLP.PLP>  (430) 
-41.0517

>  <Gold.PLP.ligand.clash>  (430) 
0.0000

>  <Gold.PLP.ligand.torsion>  (430) 
0.0371

>  <Gold.PLP.part.buried>  (430) 
-3.7367

>  <Gold.PLP.part.hbond>  (430) 
-1.0000

>  <Gold.PLP.part.metal>  (430) 
0.0000

>  <Gold.PLP.part.nonpolar>  (430) 
-36.7483

>  <Gold.PLP.part.repulsive>  (430) 
0.4054

>  <Gold.Protein.RotatedAtoms>  (430) 


>  <Gold.Protein.RotatedTorsions>  (430) 


>  <Gold.Protein.RotatedWaterAtoms>  (430) 


>  <Gold.Version>  (430) 
5.3.0

>  <PLP.Chemscore.CHOScore>  (430) 


>  <PLP.Chemscore.Hbond>  (430) 


>  <PLP.Chemscore.Internal.Correction>  (430) 


>  <PLP.Chemscore.Metal>  (430) 


>  <PLP.Fitness>  (430) 


>  <PLP.PLP>  (430) 


>  <PLP.ligand.clash>  (430) 


>  <PLP.ligand.torsion>  (430) 


>  <PLP.part.buried>  (430) 


>  <PLP.part.hbond>  (430) 


>  <PLP.part.metal>  (430) 


>  <PLP.part.nonpolar>  (430) 


>  <PLP.part.repulsive>  (430) 


>  <RMSD>  (430) 
0.319376411377

>  <Torsion>  (430) 
169.460450784

>  <TorsionO>  (430) 
9.7963905484

>  <TorsionR>  (430) 
179.256841332

>  <Version>  (430) 


>  <product>  (430) 
81|Compound_31|Compounds_3D_F|sdf|13|dock7|1

>  <rmsd>  (430) 
-1

$$$$
128|137677_56|Aromatic_carboxylic_acids_F|sdf|33|dock1|1
     RDKit          3D

 11 11  0  0  0  0  0  0  0  0999 V2000
   -8.6116  -16.1544   11.8887 C   0  0  0  0  0  0  0  0  0  0  0  0
   -7.9978  -14.8484   11.9215 N   0  0  0  0  0  0  0  0  0  0  0  0
   -8.7778  -13.7008   11.8756 C   0  0  0  0  0  0  0  0  0  0  0  0
  -10.0002  -13.7896   11.8139 O   0  0  0  0  0  0  0  0  0  0  0  0
   -8.0808  -12.3609   11.9017 C   0  0  0  0  0  0  0  0  0  0  0  0
   -8.7916  -11.1851   11.5813 C   0  0  0  0  0  0  0  0  0  0  0  0
   -8.1781   -9.9267   11.5989 C   0  0  0  0  0  0  0  0  0  0  0  0
   -6.8391   -9.8089   11.9369 C   0  0  0  0  0  0  0  0  0  0  0  0
   -6.1124  -10.9502   12.2575 C   0  0  0  0  0  0  0  0  0  0  0  0
   -6.7171  -12.2196   12.2428 C   0  0  0  0  0  0  0  0  0  0  0  0
   -5.5419  -13.6455   12.7121 Br  0  0  0  0  0  0  0  0  0  0  0  0
  1  2  1  0
  2  3  1  0
  3  4  2  0
  3  5  1  0
  5  6  2  0
  5 10  1  0
  6  7  1  0
  7  8  2  0
  8  9  1  0
  9 10  2  0
 10 11  1  0
M  END
>  <Gold.Gold.Protein.RotatedWaterAtoms>  (431) 


>  <Gold.Id.Protein>  (431) 


>  <Gold.PLP.Chemscore.CHOScore>  (431) 
0.0000

>  <Gold.PLP.Chemscore.Hbond>  (431) 
1.0000

>  <Gold.PLP.Chemscore.Internal.Correction>  (431) 
0.0000

>  <Gold.PLP.Chemscore.Metal>  (431) 
0.0000

>  <Gold.PLP.Fitness>  (431) 
45.2899

>  <Gold.PLP.PLP>  (431) 
-42.4444

>  <Gold.PLP.ligand.clash>  (431) 
0.0000

>  <Gold.PLP.ligand.torsion>  (431) 
0.0772

>  <Gold.PLP.part.buried>  (431) 
-6.4690

>  <Gold.PLP.part.hbond>  (431) 
-0.6863

>  <Gold.PLP.part.metal>  (431) 
0.0000

>  <Gold.PLP.part.nonpolar>  (431) 
-34.8280

>  <Gold.PLP.part.repulsive>  (431) 
0.1963

>  <Gold.Protein.RotatedAtoms>  (431) 


>  <Gold.Protein.RotatedTorsions>  (431) 


>  <Gold.Protein.RotatedWaterAtoms>  (431) 


>  <Gold.Version>  (431) 
5.3.0

>  <PLP.Chemscore.CHOScore>  (431) 


>  <PLP.Chemscore.Hbond>  (431) 


>  <PLP.Chemscore.Internal.Correction>  (431) 


>  <PLP.Chemscore.Metal>  (431) 


>  <PLP.Fitness>  (431) 


>  <PLP.PLP>  (431) 


>  <PLP.ligand.clash>  (431) 


>  <PLP.ligand.torsion>  (431) 


>  <PLP.part.buried>  (431) 


>  <PLP.part.hbond>  (431) 


>  <PLP.part.metal>  (431) 


>  <PLP.part.nonpolar>  (431) 


>  <PLP.part.repulsive>  (431) 


>  <RMSD>  (431) 
0.428070490903

>  <Torsion>  (431) 
152.444048788

>  <TorsionO>  (431) 
39.0580871276

>  <TorsionR>  (431) 
168.497864085

>  <Version>  (431) 


>  <product>  (431) 
81|Compound_31|Compounds_3D_F|sdf|13|dock7|1

>  <rmsd>  (431) 
-1

$$$$
974|750794_1404|Aromatic_primary_amines_F|sdf|194|dock3|1
     RDKit          3D

 14 14  0  0  0  0  0  0  0  0999 V2000
  -13.6355  -18.1936    9.4145 C   0  0  0  0  0  0  0  0  0  0  0  0
  -13.2544  -19.4497   10.1732 C   0  0  0  0  0  0  0  0  0  0  0  0
  -11.8731  -19.3506   10.5383 O   0  0  0  0  0  0  0  0  0  0  0  0
  -11.6148  -18.5085   11.5823 C   0  0  0  0  0  0  0  0  0  0  0  0
  -12.3947  -18.2810   12.5004 O   0  0  0  0  0  0  0  0  0  0  0  0
  -10.3031  -17.8985   11.4902 C   0  0  0  0  0  0  0  0  0  0  0  0
   -9.1673  -18.4974   10.9931 C   0  0  0  0  0  0  0  0  0  0  0  0
   -8.1448  -17.6055   11.0758 O   0  0  0  0  0  0  0  0  0  0  0  0
   -8.7110  -16.4917   11.6237 C   0  0  0  0  0  0  0  0  0  0  0  0
   -9.9933  -16.6110   11.8915 N   0  0  0  0  0  0  0  0  0  0  0  0
   -7.9611  -15.3718   11.8549 N   0  0  0  0  0  0  0  0  0  0  0  0
   -8.5046  -14.1249   12.0676 C   0  0  0  0  0  0  0  0  0  0  0  0
   -9.6950  -13.8313   12.1035 O   0  0  0  0  0  0  0  0  0  0  0  0
   -7.4448  -13.0785   12.3021 C   0  0  0  0  0  0  0  0  0  0  0  0
  1  2  1  0
  2  3  1  0
  3  4  1  0
  4  5  2  0
  4  6  1  0
  6  7  2  0
  6 10  1  0
  7  8  1  0
  8  9  1  0
  9 10  2  0
  9 11  1  0
 11 12  1  0
 12 13  2  0
 12 14  1  0
M  END
>  <Gold.Gold.Protein.RotatedWaterAtoms>  (432) 


>  <Gold.Id.Protein>  (432) 


>  <Gold.PLP.Chemscore.CHOScore>  (432) 
0.0000

>  <Gold.PLP.Chemscore.Hbond>  (432) 
2.0000

>  <Gold.PLP.Chemscore.Internal.Correction>  (432) 
0.0053

>  <Gold.PLP.Chemscore.Metal>  (432) 
0.0000

>  <Gold.PLP.Fitness>  (432) 
36.8047

>  <Gold.PLP.PLP>  (432) 
-32.7996

>  <Gold.PLP.ligand.clash>  (432) 
0.0000

>  <Gold.PLP.ligand.torsion>  (432) 
1.0001

>  <Gold.PLP.part.buried>  (432) 
-6.5206

>  <Gold.PLP.part.hbond>  (432) 
-2.9156

>  <Gold.PLP.part.metal>  (432) 
0.0000

>  <Gold.PLP.part.nonpolar>  (432) 
-23.4080

>  <Gold.PLP.part.repulsive>  (432) 
0.3100

>  <Gold.Protein.RotatedAtoms>  (432) 


>  <Gold.Protein.RotatedTorsions>  (432) 


>  <Gold.Protein.RotatedWaterAtoms>  (432) 


>  <Gold.Version>  (432) 
5.3.0

>  <PLP.Chemscore.CHOScore>  (432) 


>  <PLP.Chemscore.Hbond>  (432) 


>  <PLP.Chemscore.Internal.Correction>  (432) 


>  <PLP.Chemscore.Metal>  (432) 


>  <PLP.Fitness>  (432) 


>  <PLP.PLP>  (432) 


>  <PLP.ligand.clash>  (432) 


>  <PLP.ligand.torsion>  (432) 


>  <PLP.part.buried>  (432) 


>  <PLP.part.hbond>  (432) 


>  <PLP.part.metal>  (432) 


>  <PLP.part.nonpolar>  (432) 


>  <PLP.part.repulsive>  (432) 


>  <RMSD>  (432) 
0.499949349045

>  <Torsion>  (432) 
159.973716791

>  <TorsionO>  (432) 
19.1052109979

>  <TorsionR>  (432) 
179.078927789

>  <Version>  (432) 


>  <product>  (432) 
81|Compound_31|Compounds_3D_F|sdf|13|dock7|1

>  <rmsd>  (432) 
-1

$$$$
1884|M3006_1781|Aromatic_primary_amines_F|sdf|361|dock3|1
     RDKit          3D

 31 34  0  0  0  0  0  0  0  0999 V2000
  -14.4210  -19.8971    8.7934 C   0  0  0  0  0  0  0  0  0  0  0  0
  -13.9762  -19.4927   10.1894 C   0  0  0  0  0  0  0  0  0  0  0  0
  -14.1356  -20.6409   11.1817 C   0  0  0  0  0  0  0  0  0  0  0  0
  -13.5197  -20.3070   12.5189 C   0  0  0  0  0  0  0  0  0  0  0  0
  -12.9307  -19.2724   12.7954 O   0  0  0  0  0  0  0  0  0  0  0  0
  -13.7110  -21.3451   13.3845 O   0  0  0  0  0  0  0  0  0  0  0  0
  -12.9425  -21.2698   14.5900 C   0  0  0  0  0  0  0  0  0  0  0  0
  -12.8849  -22.6189   15.2889 C   0  0  0  0  0  0  0  0  0  0  0  0
  -11.6552  -22.4172   16.1494 C   0  0  0  0  0  0  0  0  0  0  0  0
  -11.2420  -23.7410   16.7624 C   0  0  0  0  0  0  0  0  0  0  0  0
  -12.3024  -24.2223   17.5862 O   0  0  0  0  0  0  0  0  0  0  0  0
  -13.7888  -24.3384   16.9603 P   0  0  0  0  0  0  0  0  0  0  0  0
  -14.8775  -24.6795   17.9243 O   0  0  0  0  0  0  0  0  0  0  0  0
  -13.9839  -22.9641   16.1174 O   0  0  0  0  0  0  0  0  0  0  0  0
  -13.5991  -25.4435   15.8075 O   0  0  0  0  0  0  0  0  0  0  0  0
  -10.6922  -21.8161   15.2889 O   0  0  0  0  0  0  0  0  0  0  0  0
  -11.4338  -20.9664   14.3653 C   0  0  0  0  0  0  0  0  0  0  0  0
  -10.9052  -21.2017   13.0342 N   0  0  0  0  0  0  0  0  0  0  0  0
  -10.7814  -22.4114   12.4013 C   0  0  0  0  0  0  0  0  0  0  0  0
  -10.2640  -22.2918   11.1953 N   0  0  0  0  0  0  0  0  0  0  0  0
  -10.0274  -20.9476   11.0424 C   0  0  0  0  0  0  0  0  0  0  0  0
  -10.4203  -20.2487   12.1733 C   0  0  0  0  0  0  0  0  0  0  0  0
  -10.3338  -18.9216   12.3641 N   0  0  0  0  0  0  0  0  0  0  0  0
   -9.8057  -18.2730   11.3024 C   0  0  0  0  0  0  0  0  0  0  0  0
   -9.3808  -18.8370   10.1545 N   0  0  0  0  0  0  0  0  0  0  0  0
   -9.4895  -20.1691   10.0244 C   0  0  0  0  0  0  0  0  0  0  0  0
   -9.0330  -20.6622    8.8349 O   0  0  0  0  0  0  0  0  0  0  0  0
   -9.7222  -16.8901   11.4793 N   0  0  0  0  0  0  0  0  0  0  0  0
   -8.5796  -16.1798   11.7761 C   0  0  0  0  0  0  0  0  0  0  0  0
   -7.4445  -16.6221   11.9131 O   0  0  0  0  0  0  0  0  0  0  0  0
   -8.8524  -14.7024   11.8973 C   0  0  0  0  0  0  0  0  0  0  0  0
  1  2  1  0
  2  3  1  0
  3  4  1  0
  4  5  2  0
  4  6  1  0
  6  7  1  0
  7  8  1  0
  7 17  1  0
  8  9  1  0
  8 14  1  0
  9 10  1  0
  9 16  1  0
 10 11  1  0
 11 12  1  0
 12 13  2  0
 12 14  1  0
 12 15  1  0
 16 17  1  0
 17 18  1  0
 18 19  1  0
 18 22  1  0
 19 20  2  0
 20 21  1  0
 21 22  2  0
 21 26  1  0
 22 23  1  0
 23 24  2  0
 24 25  1  0
 24 28  1  0
 25 26  2  0
 26 27  1  0
 28 29  1  0
 29 30  2  0
 29 31  1  0
M  END
>  <Gold.Gold.Protein.RotatedWaterAtoms>  (433) 


>  <Gold.Id.Protein>  (433) 


>  <Gold.PLP.Chemscore.CHOScore>  (433) 
0.0000

>  <Gold.PLP.Chemscore.Hbond>  (433) 
1.2080

>  <Gold.PLP.Chemscore.Internal.Correction>  (433) 
0.1232

>  <Gold.PLP.Chemscore.Metal>  (433) 
0.0000

>  <Gold.PLP.Fitness>  (433) 
47.7145

>  <Gold.PLP.PLP>  (433) 
-46.0218

>  <Gold.PLP.ligand.clash>  (433) 
0.0000

>  <Gold.PLP.ligand.torsion>  (433) 
1.0272

>  <Gold.PLP.part.buried>  (433) 
-2.2958

>  <Gold.PLP.part.hbond>  (433) 
-4.0214

>  <Gold.PLP.part.metal>  (433) 
0.0000

>  <Gold.PLP.part.nonpolar>  (433) 
-41.4699

>  <Gold.PLP.part.repulsive>  (433) 
0.9524

>  <Gold.Protein.RotatedAtoms>  (433) 


>  <Gold.Protein.RotatedTorsions>  (433) 


>  <Gold.Protein.RotatedWaterAtoms>  (433) 


>  <Gold.Version>  (433) 
5.3.0

>  <PLP.Chemscore.CHOScore>  (433) 


>  <PLP.Chemscore.Hbond>  (433) 


>  <PLP.Chemscore.Internal.Correction>  (433) 


>  <PLP.Chemscore.Metal>  (433) 


>  <PLP.Fitness>  (433) 


>  <PLP.PLP>  (433) 


>  <PLP.ligand.clash>  (433) 


>  <PLP.ligand.torsion>  (433) 


>  <PLP.part.buried>  (433) 


>  <PLP.part.hbond>  (433) 


>  <PLP.part.metal>  (433) 


>  <PLP.part.nonpolar>  (433) 


>  <PLP.part.repulsive>  (433) 


>  <RMSD>  (433) 
0.291955871297

>  <Torsion>  (433) 
171.923704933

>  <TorsionO>  (433) 
6.03609353985

>  <TorsionR>  (433) 
177.959798473

>  <Version>  (433) 


>  <product>  (433) 
81|Compound_31|Compounds_3D_F|sdf|13|dock7|1

>  <rmsd>  (433) 
-1

$$$$
193|32168_281|Aromatic_primary_amines_F|sdf|39|dock6|1
     RDKit          3D

 23 25  0  0  0  0  0  0  0  0999 V2000
   -7.8439  -12.1461   11.8919 C   0  0  0  0  0  0  0  0  0  0  0  0
   -8.5691  -13.4472   11.6781 C   0  0  0  0  0  0  0  0  0  0  0  0
   -9.7886  -13.4981   11.5208 O   0  0  0  0  0  0  0  0  0  0  0  0
   -7.7264  -14.5390   11.7020 N   0  0  0  0  0  0  0  0  0  0  0  0
   -8.1889  -15.8197   11.5323 C   0  0  0  0  0  0  0  0  0  0  0  0
   -9.4747  -16.2039   11.8163 N   0  0  0  0  0  0  0  0  0  0  0  0
   -9.5964  -17.5375   11.5379 C   0  0  0  0  0  0  0  0  0  0  0  0
  -10.6643  -18.4283   11.6415 C   0  0  0  0  0  0  0  0  0  0  0  0
  -10.4051  -19.7586   11.2778 C   0  0  0  0  0  0  0  0  0  0  0  0
   -9.1530  -20.1507   10.7795 C   0  0  0  0  0  0  0  0  0  0  0  0
   -8.1017  -19.2294   10.6839 C   0  0  0  0  0  0  0  0  0  0  0  0
   -8.3349  -17.9032   11.0783 C   0  0  0  0  0  0  0  0  0  0  0  0
   -7.4773  -16.8281   11.0838 N   0  0  0  0  0  0  0  0  0  0  0  0
   -8.8530  -21.7658   10.2429 Cl  0  0  0  0  0  0  0  0  0  0  0  0
  -11.4669  -20.6323   11.3734 O   0  0  0  0  0  0  0  0  0  0  0  0
  -12.5262  -20.4408   10.5053 C   0  0  0  0  0  0  0  0  0  0  0  0
  -13.3188  -19.2846   10.5304 C   0  0  0  0  0  0  0  0  0  0  0  0
  -14.3665  -19.1344    9.6224 C   0  0  0  0  0  0  0  0  0  0  0  0
  -14.6219  -20.1279    8.6796 C   0  0  0  0  0  0  0  0  0  0  0  0
  -13.8238  -21.2756    8.6345 C   0  0  0  0  0  0  0  0  0  0  0  0
  -12.7674  -21.4342    9.5416 C   0  0  0  0  0  0  0  0  0  0  0  0
  -11.7588  -22.8458    9.4996 Cl  0  0  0  0  0  0  0  0  0  0  0  0
  -14.1988  -22.4584    7.4296 Cl  0  0  0  0  0  0  0  0  0  0  0  0
  1  2  1  0
  2  3  2  0
  2  4  1  0
  4  5  1  0
  5  6  1  0
  5 13  2  0
  6  7  1  0
  7  8  2  0
  7 12  1  0
  8  9  1  0
  9 10  2  0
  9 15  1  0
 10 11  1  0
 10 14  1  0
 11 12  2  0
 12 13  1  0
 15 16  1  0
 16 17  2  0
 16 21  1  0
 17 18  1  0
 18 19  2  0
 19 20  1  0
 20 21  2  0
 20 23  1  0
 21 22  1  0
M  END
>  <Gold.Gold.Protein.RotatedWaterAtoms>  (434) 


>  <Gold.Id.Protein>  (434) 


>  <Gold.PLP.Chemscore.CHOScore>  (434) 
0.0000

>  <Gold.PLP.Chemscore.Hbond>  (434) 
1.0000

>  <Gold.PLP.Chemscore.Internal.Correction>  (434) 
0.0086

>  <Gold.PLP.Chemscore.Metal>  (434) 
0.0000

>  <Gold.PLP.Fitness>  (434) 
50.7139

>  <Gold.PLP.PLP>  (434) 
-48.1706

>  <Gold.PLP.ligand.clash>  (434) 
0.0000

>  <Gold.PLP.ligand.torsion>  (434) 
0.2327

>  <Gold.PLP.part.buried>  (434) 
-6.5205

>  <Gold.PLP.part.hbond>  (434) 
-2.0000

>  <Gold.PLP.part.metal>  (434) 
0.0000

>  <Gold.PLP.part.nonpolar>  (434) 
-39.3857

>  <Gold.PLP.part.repulsive>  (434) 
0.3298

>  <Gold.Protein.RotatedAtoms>  (434) 


>  <Gold.Protein.RotatedTorsions>  (434) 


>  <Gold.Protein.RotatedWaterAtoms>  (434) 


>  <Gold.Version>  (434) 
5.3.0

>  <PLP.Chemscore.CHOScore>  (434) 


>  <PLP.Chemscore.Hbond>  (434) 


>  <PLP.Chemscore.Internal.Correction>  (434) 


>  <PLP.Chemscore.Metal>  (434) 


>  <PLP.Fitness>  (434) 


>  <PLP.PLP>  (434) 


>  <PLP.ligand.clash>  (434) 


>  <PLP.ligand.torsion>  (434) 


>  <PLP.part.buried>  (434) 


>  <PLP.part.hbond>  (434) 


>  <PLP.part.metal>  (434) 


>  <PLP.part.nonpolar>  (434) 


>  <PLP.part.repulsive>  (434) 


>  <RMSD>  (434) 
0.439733510035

>  <Torsion>  (434) 
177.672185574

>  <TorsionO>  (434) 
4.31728583372

>  <TorsionR>  (434) 
173.35489974

>  <Version>  (434) 


>  <product>  (434) 
81|Compound_31|Compounds_3D_F|sdf|13|dock7|1

>  <rmsd>  (434) 
-1

$$$$
39|Compound_21|Compounds_3D_F|sdf|8|dock2|1
     RDKit          3D

 10  9  0  0  0  0  0  0  0  0999 V2000
   -5.8996  -14.1079   10.7017 O   0  0  0  0  0  0  0  0  0  0  0  0
   -6.6163  -15.1504   11.3657 C   0  0  0  0  0  0  0  0  0  0  0  0
   -8.1007  -15.0567   11.0089 C   0  0  0  0  0  0  0  0  0  0  0  0
   -8.2538  -15.0523    9.5524 N   0  0  0  0  0  0  0  0  0  0  0  0
   -7.7775  -16.0794    8.8213 C   0  0  0  0  0  0  0  0  0  0  0  0
   -7.2219  -17.0074    9.3697 O   0  0  0  0  0  0  0  0  0  0  0  0
   -7.9416  -16.0747    7.2596 B   0  0  0  0  0  0  0  0  0  0  0  0
   -8.8432  -16.2585   11.5961 C   0  0  0  0  0  0  0  0  0  0  0  0
   -8.6833  -13.7653   11.5874 C   0  0  0  0  0  0  0  0  0  0  0  0
   -9.9654  -13.5182   11.0067 O   0  0  0  0  0  0  0  0  0  0  0  0
  1  2  1  0
  2  3  1  0
  3  4  1  0
  3  8  1  0
  3  9  1  0
  4  5  1  0
  5  6  2  0
  5  7  1  0
  9 10  1  0
M  END
>  <Gold.Gold.Protein.RotatedWaterAtoms>  (435) 


>  <Gold.Id.Protein>  (435) 


>  <Gold.PLP.Chemscore.CHOScore>  (435) 
0.0000

>  <Gold.PLP.Chemscore.Hbond>  (435) 
3.8800

>  <Gold.PLP.Chemscore.Internal.Correction>  (435) 
0.0014

>  <Gold.PLP.Chemscore.Metal>  (435) 
0.0000

>  <Gold.PLP.Fitness>  (435) 
34.1627

>  <Gold.PLP.PLP>  (435) 
-22.8524

>  <Gold.PLP.ligand.clash>  (435) 
0.0000

>  <Gold.PLP.ligand.torsion>  (435) 
0.1655

>  <Gold.PLP.part.buried>  (435) 
-3.2001

>  <Gold.PLP.part.hbond>  (435) 
-4.7394

>  <Gold.PLP.part.metal>  (435) 
0.0000

>  <Gold.PLP.part.nonpolar>  (435) 
-14.7612

>  <Gold.PLP.part.repulsive>  (435) 
0.0953

>  <Gold.Protein.RotatedAtoms>  (435) 


>  <Gold.Protein.RotatedTorsions>  (435) 


>  <Gold.Protein.RotatedWaterAtoms>  (435) 


>  <Gold.Version>  (435) 
5.3.0

>  <PLP.Chemscore.CHOScore>  (435) 


>  <PLP.Chemscore.Hbond>  (435) 


>  <PLP.Chemscore.Internal.Correction>  (435) 


>  <PLP.Chemscore.Metal>  (435) 


>  <PLP.Fitness>  (435) 


>  <PLP.PLP>  (435) 


>  <PLP.ligand.clash>  (435) 


>  <PLP.ligand.torsion>  (435) 


>  <PLP.part.buried>  (435) 


>  <PLP.part.hbond>  (435) 


>  <PLP.part.metal>  (435) 


>  <PLP.part.nonpolar>  (435) 


>  <PLP.part.repulsive>  (435) 


>  <Version>  (435) 


$$$$
94|664022_40|Aromatic_carboxylic_acids_F|sdf|24|dock1|1
     RDKit          3D

 12 12  0  0  0  0  0  0  0  0999 V2000
   -8.2596  -17.1212   11.4595 C   0  0  0  0  0  0  0  0  0  0  0  0
   -7.6366  -15.8367   11.6688 N   0  0  0  0  0  0  0  0  0  0  0  0
   -8.3409  -14.6553   11.5719 C   0  0  0  0  0  0  0  0  0  0  0  0
   -9.5296  -14.5547   11.2978 O   0  0  0  0  0  0  0  0  0  0  0  0
   -7.5420  -13.4431   11.8503 C   0  0  0  0  0  0  0  0  0  0  0  0
   -8.1627  -12.1983   11.6738 C   0  0  0  0  0  0  0  0  0  0  0  0
   -7.4390  -11.0301   11.9055 C   0  0  0  0  0  0  0  0  0  0  0  0
   -6.1069  -11.0910   12.3103 C   0  0  0  0  0  0  0  0  0  0  0  0
   -5.4897  -12.3324   12.4853 C   0  0  0  0  0  0  0  0  0  0  0  0
   -6.2035  -13.5136   12.2549 C   0  0  0  0  0  0  0  0  0  0  0  0
   -5.3062  -15.1564   12.5638 Br  0  0  0  0  0  0  0  0  0  0  0  0
   -8.1960   -9.5005   11.6887 Cl  0  0  0  0  0  0  0  0  0  0  0  0
  1  2  1  0
  2  3  1  0
  3  4  2  0
  3  5  1  0
  5  6  2  0
  5 10  1  0
  6  7  1  0
  7  8  2  0
  7 12  1  0
  8  9  1  0
  9 10  2  0
 10 11  1  0
M  END
>  <Gold.Gold.Protein.RotatedWaterAtoms>  (436) 


>  <Gold.Id.Protein>  (436) 


>  <Gold.PLP.Chemscore.CHOScore>  (436) 
0.0000

>  <Gold.PLP.Chemscore.Hbond>  (436) 
0.4160

>  <Gold.PLP.Chemscore.Internal.Correction>  (436) 
0.0004

>  <Gold.PLP.Chemscore.Metal>  (436) 
0.0000

>  <Gold.PLP.Fitness>  (436) 
48.9046

>  <Gold.PLP.PLP>  (436) 
-47.6744

>  <Gold.PLP.ligand.clash>  (436) 
0.0000

>  <Gold.PLP.ligand.torsion>  (436) 
0.0091

>  <Gold.PLP.part.buried>  (436) 
-7.3578

>  <Gold.PLP.part.hbond>  (436) 
-0.5127

>  <Gold.PLP.part.metal>  (436) 
0.0000

>  <Gold.PLP.part.nonpolar>  (436) 
-40.3098

>  <Gold.PLP.part.repulsive>  (436) 
0.1684

>  <Gold.Protein.RotatedAtoms>  (436) 


>  <Gold.Protein.RotatedTorsions>  (436) 


>  <Gold.Protein.RotatedWaterAtoms>  (436) 


>  <Gold.Version>  (436) 
5.3.0

>  <PLP.Chemscore.CHOScore>  (436) 


>  <PLP.Chemscore.Hbond>  (436) 


>  <PLP.Chemscore.Internal.Correction>  (436) 


>  <PLP.Chemscore.Metal>  (436) 


>  <PLP.Fitness>  (436) 


>  <PLP.PLP>  (436) 


>  <PLP.ligand.clash>  (436) 


>  <PLP.ligand.torsion>  (436) 


>  <PLP.part.buried>  (436) 


>  <PLP.part.hbond>  (436) 


>  <PLP.part.metal>  (436) 


>  <PLP.part.nonpolar>  (436) 


>  <PLP.part.repulsive>  (436) 


>  <RMSD>  (436) 
0.30972197429

>  <Torsion>  (436) 
172.929186758

>  <TorsionO>  (436) 
24.4968065243

>  <TorsionR>  (436) 
162.574006718

>  <Version>  (436) 


>  <product>  (436) 
39|Compound_21|Compounds_3D_F|sdf|8|dock2|1

>  <rmsd>  (436) 
-1

$$$$
110|565385_49|Aromatic_carboxylic_acids_F|sdf|29|dock1|1
     RDKit          3D

 13 13  0  0  0  0  0  0  0  0999 V2000
  -10.1118  -17.9021   11.6320 C   0  0  0  0  0  0  0  0  0  0  0  0
   -9.7537  -16.5043   11.6546 N   0  0  0  0  0  0  0  0  0  0  0  0
   -8.4330  -16.1187   11.7930 C   0  0  0  0  0  0  0  0  0  0  0  0
   -7.5159  -16.9298   11.9008 O   0  0  0  0  0  0  0  0  0  0  0  0
   -8.1234  -14.6552   11.8105 C   0  0  0  0  0  0  0  0  0  0  0  0
   -9.0636  -13.6551   11.5375 C   0  0  0  0  0  0  0  0  0  0  0  0
   -8.6966  -12.3009   11.5726 C   0  0  0  0  0  0  0  0  0  0  0  0
   -7.3879  -11.9195   11.8809 C   0  0  0  0  0  0  0  0  0  0  0  0
   -6.4486  -12.9235   12.1551 C   0  0  0  0  0  0  0  0  0  0  0  0
   -6.8098  -14.2750   12.1207 C   0  0  0  0  0  0  0  0  0  0  0  0
   -4.6444  -12.5025   12.5849 Br  0  0  0  0  0  0  0  0  0  0  0  0
   -6.9476  -10.6242   11.9372 O   0  0  0  0  0  0  0  0  0  0  0  0
   -7.9020   -9.5910   11.7256 C   0  0  0  0  0  0  0  0  0  0  0  0
  1  2  1  0
  2  3  1  0
  3  4  2  0
  3  5  1  0
  5  6  2  0
  5 10  1  0
  6  7  1  0
  7  8  2  0
  8  9  1  0
  8 12  1  0
  9 10  2  0
  9 11  1  0
 12 13  1  0
M  END
>  <Gold.Gold.Protein.RotatedWaterAtoms>  (437) 


>  <Gold.Id.Protein>  (437) 


>  <Gold.PLP.Chemscore.CHOScore>  (437) 
0.0000

>  <Gold.PLP.Chemscore.Hbond>  (437) 
1.0000

>  <Gold.PLP.Chemscore.Internal.Correction>  (437) 
0.0000

>  <Gold.PLP.Chemscore.Metal>  (437) 
0.0000

>  <Gold.PLP.Fitness>  (437) 
43.9775

>  <Gold.PLP.PLP>  (437) 
-41.0517

>  <Gold.PLP.ligand.clash>  (437) 
0.0000

>  <Gold.PLP.ligand.torsion>  (437) 
0.0371

>  <Gold.PLP.part.buried>  (437) 
-3.7367

>  <Gold.PLP.part.hbond>  (437) 
-1.0000

>  <Gold.PLP.part.metal>  (437) 
0.0000

>  <Gold.PLP.part.nonpolar>  (437) 
-36.7483

>  <Gold.PLP.part.repulsive>  (437) 
0.4054

>  <Gold.Protein.RotatedAtoms>  (437) 


>  <Gold.Protein.RotatedTorsions>  (437) 


>  <Gold.Protein.RotatedWaterAtoms>  (437) 


>  <Gold.Version>  (437) 
5.3.0

>  <PLP.Chemscore.CHOScore>  (437) 


>  <PLP.Chemscore.Hbond>  (437) 


>  <PLP.Chemscore.Internal.Correction>  (437) 


>  <PLP.Chemscore.Metal>  (437) 


>  <PLP.Fitness>  (437) 


>  <PLP.PLP>  (437) 


>  <PLP.ligand.clash>  (437) 


>  <PLP.ligand.torsion>  (437) 


>  <PLP.part.buried>  (437) 


>  <PLP.part.hbond>  (437) 


>  <PLP.part.metal>  (437) 


>  <PLP.part.nonpolar>  (437) 


>  <PLP.part.repulsive>  (437) 


>  <RMSD>  (437) 
0.319376411377

>  <Torsion>  (437) 
169.460450784

>  <TorsionO>  (437) 
9.7963905484

>  <TorsionR>  (437) 
179.256841332

>  <Version>  (437) 


>  <product>  (437) 
39|Compound_21|Compounds_3D_F|sdf|8|dock2|1

>  <rmsd>  (437) 
-1

$$$$
128|137677_56|Aromatic_carboxylic_acids_F|sdf|33|dock1|1
     RDKit          3D

 11 11  0  0  0  0  0  0  0  0999 V2000
   -8.6116  -16.1544   11.8887 C   0  0  0  0  0  0  0  0  0  0  0  0
   -7.9978  -14.8484   11.9215 N   0  0  0  0  0  0  0  0  0  0  0  0
   -8.7778  -13.7008   11.8756 C   0  0  0  0  0  0  0  0  0  0  0  0
  -10.0002  -13.7896   11.8139 O   0  0  0  0  0  0  0  0  0  0  0  0
   -8.0808  -12.3609   11.9017 C   0  0  0  0  0  0  0  0  0  0  0  0
   -8.7916  -11.1851   11.5813 C   0  0  0  0  0  0  0  0  0  0  0  0
   -8.1781   -9.9267   11.5989 C   0  0  0  0  0  0  0  0  0  0  0  0
   -6.8391   -9.8089   11.9369 C   0  0  0  0  0  0  0  0  0  0  0  0
   -6.1124  -10.9502   12.2575 C   0  0  0  0  0  0  0  0  0  0  0  0
   -6.7171  -12.2196   12.2428 C   0  0  0  0  0  0  0  0  0  0  0  0
   -5.5419  -13.6455   12.7121 Br  0  0  0  0  0  0  0  0  0  0  0  0
  1  2  1  0
  2  3  1  0
  3  4  2  0
  3  5  1  0
  5  6  2  0
  5 10  1  0
  6  7  1  0
  7  8  2  0
  8  9  1  0
  9 10  2  0
 10 11  1  0
M  END
>  <Gold.Gold.Protein.RotatedWaterAtoms>  (438) 


>  <Gold.Id.Protein>  (438) 


>  <Gold.PLP.Chemscore.CHOScore>  (438) 
0.0000

>  <Gold.PLP.Chemscore.Hbond>  (438) 
1.0000

>  <Gold.PLP.Chemscore.Internal.Correction>  (438) 
0.0000

>  <Gold.PLP.Chemscore.Metal>  (438) 
0.0000

>  <Gold.PLP.Fitness>  (438) 
45.2899

>  <Gold.PLP.PLP>  (438) 
-42.4444

>  <Gold.PLP.ligand.clash>  (438) 
0.0000

>  <Gold.PLP.ligand.torsion>  (438) 
0.0772

>  <Gold.PLP.part.buried>  (438) 
-6.4690

>  <Gold.PLP.part.hbond>  (438) 
-0.6863

>  <Gold.PLP.part.metal>  (438) 
0.0000

>  <Gold.PLP.part.nonpolar>  (438) 
-34.8280

>  <Gold.PLP.part.repulsive>  (438) 
0.1963

>  <Gold.Protein.RotatedAtoms>  (438) 


>  <Gold.Protein.RotatedTorsions>  (438) 


>  <Gold.Protein.RotatedWaterAtoms>  (438) 


>  <Gold.Version>  (438) 
5.3.0

>  <PLP.Chemscore.CHOScore>  (438) 


>  <PLP.Chemscore.Hbond>  (438) 


>  <PLP.Chemscore.Internal.Correction>  (438) 


>  <PLP.Chemscore.Metal>  (438) 


>  <PLP.Fitness>  (438) 


>  <PLP.PLP>  (438) 


>  <PLP.ligand.clash>  (438) 


>  <PLP.ligand.torsion>  (438) 


>  <PLP.part.buried>  (438) 


>  <PLP.part.hbond>  (438) 


>  <PLP.part.metal>  (438) 


>  <PLP.part.nonpolar>  (438) 


>  <PLP.part.repulsive>  (438) 


>  <RMSD>  (438) 
0.428070490903

>  <Torsion>  (438) 
152.444048788

>  <TorsionO>  (438) 
39.0580871276

>  <TorsionR>  (438) 
168.497864085

>  <Version>  (438) 


>  <product>  (438) 
39|Compound_21|Compounds_3D_F|sdf|8|dock2|1

>  <rmsd>  (438) 
-1

$$$$
974|750794_1404|Aromatic_primary_amines_F|sdf|194|dock3|1
     RDKit          3D

 14 14  0  0  0  0  0  0  0  0999 V2000
  -13.6355  -18.1936    9.4145 C   0  0  0  0  0  0  0  0  0  0  0  0
  -13.2544  -19.4497   10.1732 C   0  0  0  0  0  0  0  0  0  0  0  0
  -11.8731  -19.3506   10.5383 O   0  0  0  0  0  0  0  0  0  0  0  0
  -11.6148  -18.5085   11.5823 C   0  0  0  0  0  0  0  0  0  0  0  0
  -12.3947  -18.2810   12.5004 O   0  0  0  0  0  0  0  0  0  0  0  0
  -10.3031  -17.8985   11.4902 C   0  0  0  0  0  0  0  0  0  0  0  0
   -9.1673  -18.4974   10.9931 C   0  0  0  0  0  0  0  0  0  0  0  0
   -8.1448  -17.6055   11.0758 O   0  0  0  0  0  0  0  0  0  0  0  0
   -8.7110  -16.4917   11.6237 C   0  0  0  0  0  0  0  0  0  0  0  0
   -9.9933  -16.6110   11.8915 N   0  0  0  0  0  0  0  0  0  0  0  0
   -7.9611  -15.3718   11.8549 N   0  0  0  0  0  0  0  0  0  0  0  0
   -8.5046  -14.1249   12.0676 C   0  0  0  0  0  0  0  0  0  0  0  0
   -9.6950  -13.8313   12.1035 O   0  0  0  0  0  0  0  0  0  0  0  0
   -7.4448  -13.0785   12.3021 C   0  0  0  0  0  0  0  0  0  0  0  0
  1  2  1  0
  2  3  1  0
  3  4  1  0
  4  5  2  0
  4  6  1  0
  6  7  2  0
  6 10  1  0
  7  8  1  0
  8  9  1  0
  9 10  2  0
  9 11  1  0
 11 12  1  0
 12 13  2  0
 12 14  1  0
M  END
>  <Gold.Gold.Protein.RotatedWaterAtoms>  (439) 


>  <Gold.Id.Protein>  (439) 


>  <Gold.PLP.Chemscore.CHOScore>  (439) 
0.0000

>  <Gold.PLP.Chemscore.Hbond>  (439) 
2.0000

>  <Gold.PLP.Chemscore.Internal.Correction>  (439) 
0.0053

>  <Gold.PLP.Chemscore.Metal>  (439) 
0.0000

>  <Gold.PLP.Fitness>  (439) 
36.8047

>  <Gold.PLP.PLP>  (439) 
-32.7996

>  <Gold.PLP.ligand.clash>  (439) 
0.0000

>  <Gold.PLP.ligand.torsion>  (439) 
1.0001

>  <Gold.PLP.part.buried>  (439) 
-6.5206

>  <Gold.PLP.part.hbond>  (439) 
-2.9156

>  <Gold.PLP.part.metal>  (439) 
0.0000

>  <Gold.PLP.part.nonpolar>  (439) 
-23.4080

>  <Gold.PLP.part.repulsive>  (439) 
0.3100

>  <Gold.Protein.RotatedAtoms>  (439) 


>  <Gold.Protein.RotatedTorsions>  (439) 


>  <Gold.Protein.RotatedWaterAtoms>  (439) 


>  <Gold.Version>  (439) 
5.3.0

>  <PLP.Chemscore.CHOScore>  (439) 


>  <PLP.Chemscore.Hbond>  (439) 


>  <PLP.Chemscore.Internal.Correction>  (439) 


>  <PLP.Chemscore.Metal>  (439) 


>  <PLP.Fitness>  (439) 


>  <PLP.PLP>  (439) 


>  <PLP.ligand.clash>  (439) 


>  <PLP.ligand.torsion>  (439) 


>  <PLP.part.buried>  (439) 


>  <PLP.part.hbond>  (439) 


>  <PLP.part.metal>  (439) 


>  <PLP.part.nonpolar>  (439) 


>  <PLP.part.repulsive>  (439) 


>  <RMSD>  (439) 
0.499949349045

>  <Torsion>  (439) 
159.973716791

>  <TorsionO>  (439) 
19.1052109979

>  <TorsionR>  (439) 
179.078927789

>  <Version>  (439) 


>  <product>  (439) 
39|Compound_21|Compounds_3D_F|sdf|8|dock2|1

>  <rmsd>  (439) 
-1

$$$$
1884|M3006_1781|Aromatic_primary_amines_F|sdf|361|dock3|1
     RDKit          3D

 31 34  0  0  0  0  0  0  0  0999 V2000
  -14.4210  -19.8971    8.7934 C   0  0  0  0  0  0  0  0  0  0  0  0
  -13.9762  -19.4927   10.1894 C   0  0  0  0  0  0  0  0  0  0  0  0
  -14.1356  -20.6409   11.1817 C   0  0  0  0  0  0  0  0  0  0  0  0
  -13.5197  -20.3070   12.5189 C   0  0  0  0  0  0  0  0  0  0  0  0
  -12.9307  -19.2724   12.7954 O   0  0  0  0  0  0  0  0  0  0  0  0
  -13.7110  -21.3451   13.3845 O   0  0  0  0  0  0  0  0  0  0  0  0
  -12.9425  -21.2698   14.5900 C   0  0  0  0  0  0  0  0  0  0  0  0
  -12.8849  -22.6189   15.2889 C   0  0  0  0  0  0  0  0  0  0  0  0
  -11.6552  -22.4172   16.1494 C   0  0  0  0  0  0  0  0  0  0  0  0
  -11.2420  -23.7410   16.7624 C   0  0  0  0  0  0  0  0  0  0  0  0
  -12.3024  -24.2223   17.5862 O   0  0  0  0  0  0  0  0  0  0  0  0
  -13.7888  -24.3384   16.9603 P   0  0  0  0  0  0  0  0  0  0  0  0
  -14.8775  -24.6795   17.9243 O   0  0  0  0  0  0  0  0  0  0  0  0
  -13.9839  -22.9641   16.1174 O   0  0  0  0  0  0  0  0  0  0  0  0
  -13.5991  -25.4435   15.8075 O   0  0  0  0  0  0  0  0  0  0  0  0
  -10.6922  -21.8161   15.2889 O   0  0  0  0  0  0  0  0  0  0  0  0
  -11.4338  -20.9664   14.3653 C   0  0  0  0  0  0  0  0  0  0  0  0
  -10.9052  -21.2017   13.0342 N   0  0  0  0  0  0  0  0  0  0  0  0
  -10.7814  -22.4114   12.4013 C   0  0  0  0  0  0  0  0  0  0  0  0
  -10.2640  -22.2918   11.1953 N   0  0  0  0  0  0  0  0  0  0  0  0
  -10.0274  -20.9476   11.0424 C   0  0  0  0  0  0  0  0  0  0  0  0
  -10.4203  -20.2487   12.1733 C   0  0  0  0  0  0  0  0  0  0  0  0
  -10.3338  -18.9216   12.3641 N   0  0  0  0  0  0  0  0  0  0  0  0
   -9.8057  -18.2730   11.3024 C   0  0  0  0  0  0  0  0  0  0  0  0
   -9.3808  -18.8370   10.1545 N   0  0  0  0  0  0  0  0  0  0  0  0
   -9.4895  -20.1691   10.0244 C   0  0  0  0  0  0  0  0  0  0  0  0
   -9.0330  -20.6622    8.8349 O   0  0  0  0  0  0  0  0  0  0  0  0
   -9.7222  -16.8901   11.4793 N   0  0  0  0  0  0  0  0  0  0  0  0
   -8.5796  -16.1798   11.7761 C   0  0  0  0  0  0  0  0  0  0  0  0
   -7.4445  -16.6221   11.9131 O   0  0  0  0  0  0  0  0  0  0  0  0
   -8.8524  -14.7024   11.8973 C   0  0  0  0  0  0  0  0  0  0  0  0
  1  2  1  0
  2  3  1  0
  3  4  1  0
  4  5  2  0
  4  6  1  0
  6  7  1  0
  7  8  1  0
  7 17  1  0
  8  9  1  0
  8 14  1  0
  9 10  1  0
  9 16  1  0
 10 11  1  0
 11 12  1  0
 12 13  2  0
 12 14  1  0
 12 15  1  0
 16 17  1  0
 17 18  1  0
 18 19  1  0
 18 22  1  0
 19 20  2  0
 20 21  1  0
 21 22  2  0
 21 26  1  0
 22 23  1  0
 23 24  2  0
 24 25  1  0
 24 28  1  0
 25 26  2  0
 26 27  1  0
 28 29  1  0
 29 30  2  0
 29 31  1  0
M  END
>  <Gold.Gold.Protein.RotatedWaterAtoms>  (440) 


>  <Gold.Id.Protein>  (440) 


>  <Gold.PLP.Chemscore.CHOScore>  (440) 
0.0000

>  <Gold.PLP.Chemscore.Hbond>  (440) 
1.2080

>  <Gold.PLP.Chemscore.Internal.Correction>  (440) 
0.1232

>  <Gold.PLP.Chemscore.Metal>  (440) 
0.0000

>  <Gold.PLP.Fitness>  (440) 
47.7145

>  <Gold.PLP.PLP>  (440) 
-46.0218

>  <Gold.PLP.ligand.clash>  (440) 
0.0000

>  <Gold.PLP.ligand.torsion>  (440) 
1.0272

>  <Gold.PLP.part.buried>  (440) 
-2.2958

>  <Gold.PLP.part.hbond>  (440) 
-4.0214

>  <Gold.PLP.part.metal>  (440) 
0.0000

>  <Gold.PLP.part.nonpolar>  (440) 
-41.4699

>  <Gold.PLP.part.repulsive>  (440) 
0.9524

>  <Gold.Protein.RotatedAtoms>  (440) 


>  <Gold.Protein.RotatedTorsions>  (440) 


>  <Gold.Protein.RotatedWaterAtoms>  (440) 


>  <Gold.Version>  (440) 
5.3.0

>  <PLP.Chemscore.CHOScore>  (440) 


>  <PLP.Chemscore.Hbond>  (440) 


>  <PLP.Chemscore.Internal.Correction>  (440) 


>  <PLP.Chemscore.Metal>  (440) 


>  <PLP.Fitness>  (440) 


>  <PLP.PLP>  (440) 


>  <PLP.ligand.clash>  (440) 


>  <PLP.ligand.torsion>  (440) 


>  <PLP.part.buried>  (440) 


>  <PLP.part.hbond>  (440) 


>  <PLP.part.metal>  (440) 


>  <PLP.part.nonpolar>  (440) 


>  <PLP.part.repulsive>  (440) 


>  <RMSD>  (440) 
0.291955871297

>  <Torsion>  (440) 
171.923704933

>  <TorsionO>  (440) 
6.03609353985

>  <TorsionR>  (440) 
177.959798473

>  <Version>  (440) 


>  <product>  (440) 
39|Compound_21|Compounds_3D_F|sdf|8|dock2|1

>  <rmsd>  (440) 
-1

$$$$
193|32168_281|Aromatic_primary_amines_F|sdf|39|dock6|1
     RDKit          3D

 23 25  0  0  0  0  0  0  0  0999 V2000
   -7.8439  -12.1461   11.8919 C   0  0  0  0  0  0  0  0  0  0  0  0
   -8.5691  -13.4472   11.6781 C   0  0  0  0  0  0  0  0  0  0  0  0
   -9.7886  -13.4981   11.5208 O   0  0  0  0  0  0  0  0  0  0  0  0
   -7.7264  -14.5390   11.7020 N   0  0  0  0  0  0  0  0  0  0  0  0
   -8.1889  -15.8197   11.5323 C   0  0  0  0  0  0  0  0  0  0  0  0
   -9.4747  -16.2039   11.8163 N   0  0  0  0  0  0  0  0  0  0  0  0
   -9.5964  -17.5375   11.5379 C   0  0  0  0  0  0  0  0  0  0  0  0
  -10.6643  -18.4283   11.6415 C   0  0  0  0  0  0  0  0  0  0  0  0
  -10.4051  -19.7586   11.2778 C   0  0  0  0  0  0  0  0  0  0  0  0
   -9.1530  -20.1507   10.7795 C   0  0  0  0  0  0  0  0  0  0  0  0
   -8.1017  -19.2294   10.6839 C   0  0  0  0  0  0  0  0  0  0  0  0
   -8.3349  -17.9032   11.0783 C   0  0  0  0  0  0  0  0  0  0  0  0
   -7.4773  -16.8281   11.0838 N   0  0  0  0  0  0  0  0  0  0  0  0
   -8.8530  -21.7658   10.2429 Cl  0  0  0  0  0  0  0  0  0  0  0  0
  -11.4669  -20.6323   11.3734 O   0  0  0  0  0  0  0  0  0  0  0  0
  -12.5262  -20.4408   10.5053 C   0  0  0  0  0  0  0  0  0  0  0  0
  -13.3188  -19.2846   10.5304 C   0  0  0  0  0  0  0  0  0  0  0  0
  -14.3665  -19.1344    9.6224 C   0  0  0  0  0  0  0  0  0  0  0  0
  -14.6219  -20.1279    8.6796 C   0  0  0  0  0  0  0  0  0  0  0  0
  -13.8238  -21.2756    8.6345 C   0  0  0  0  0  0  0  0  0  0  0  0
  -12.7674  -21.4342    9.5416 C   0  0  0  0  0  0  0  0  0  0  0  0
  -11.7588  -22.8458    9.4996 Cl  0  0  0  0  0  0  0  0  0  0  0  0
  -14.1988  -22.4584    7.4296 Cl  0  0  0  0  0  0  0  0  0  0  0  0
  1  2  1  0
  2  3  2  0
  2  4  1  0
  4  5  1  0
  5  6  1  0
  5 13  2  0
  6  7  1  0
  7  8  2  0
  7 12  1  0
  8  9  1  0
  9 10  2  0
  9 15  1  0
 10 11  1  0
 10 14  1  0
 11 12  2  0
 12 13  1  0
 15 16  1  0
 16 17  2  0
 16 21  1  0
 17 18  1  0
 18 19  2  0
 19 20  1  0
 20 21  2  0
 20 23  1  0
 21 22  1  0
M  END
>  <Gold.Gold.Protein.RotatedWaterAtoms>  (441) 


>  <Gold.Id.Protein>  (441) 


>  <Gold.PLP.Chemscore.CHOScore>  (441) 
0.0000

>  <Gold.PLP.Chemscore.Hbond>  (441) 
1.0000

>  <Gold.PLP.Chemscore.Internal.Correction>  (441) 
0.0086

>  <Gold.PLP.Chemscore.Metal>  (441) 
0.0000

>  <Gold.PLP.Fitness>  (441) 
50.7139

>  <Gold.PLP.PLP>  (441) 
-48.1706

>  <Gold.PLP.ligand.clash>  (441) 
0.0000

>  <Gold.PLP.ligand.torsion>  (441) 
0.2327

>  <Gold.PLP.part.buried>  (441) 
-6.5205

>  <Gold.PLP.part.hbond>  (441) 
-2.0000

>  <Gold.PLP.part.metal>  (441) 
0.0000

>  <Gold.PLP.part.nonpolar>  (441) 
-39.3857

>  <Gold.PLP.part.repulsive>  (441) 
0.3298

>  <Gold.Protein.RotatedAtoms>  (441) 


>  <Gold.Protein.RotatedTorsions>  (441) 


>  <Gold.Protein.RotatedWaterAtoms>  (441) 


>  <Gold.Version>  (441) 
5.3.0

>  <PLP.Chemscore.CHOScore>  (441) 


>  <PLP.Chemscore.Hbond>  (441) 


>  <PLP.Chemscore.Internal.Correction>  (441) 


>  <PLP.Chemscore.Metal>  (441) 


>  <PLP.Fitness>  (441) 


>  <PLP.PLP>  (441) 


>  <PLP.ligand.clash>  (441) 


>  <PLP.ligand.torsion>  (441) 


>  <PLP.part.buried>  (441) 


>  <PLP.part.hbond>  (441) 


>  <PLP.part.metal>  (441) 


>  <PLP.part.nonpolar>  (441) 


>  <PLP.part.repulsive>  (441) 


>  <RMSD>  (441) 
0.439733510035

>  <Torsion>  (441) 
177.672185574

>  <TorsionO>  (441) 
4.31728583372

>  <TorsionR>  (441) 
173.35489974

>  <Version>  (441) 


>  <product>  (441) 
39|Compound_21|Compounds_3D_F|sdf|8|dock2|1

>  <rmsd>  (441) 
-1

$$$$
55|Compound_24|Compounds_3D_F|sdf|10|dock2|1
     RDKit          3D

 10  9  0  0  0  0  0  0  0  0999 V2000
   -4.6121  -12.4434   13.0305 O   0  0  0  0  0  0  0  0  0  0  0  0
   -5.8228  -12.1348   12.5420 C   0  0  0  0  0  0  0  0  0  0  0  0
   -6.0687  -10.9998   12.2062 O   0  0  0  0  0  0  0  0  0  0  0  0
   -6.8780  -13.2032   12.4122 C   0  0  0  0  0  0  0  0  0  0  0  0
   -8.2439  -12.5479   12.1965 C   0  0  0  0  0  0  0  0  0  0  0  0
   -6.5497  -14.1030   11.2192 C   0  0  0  0  0  0  0  0  0  0  0  0
   -5.3072  -14.8331   11.4852 N   0  0  0  0  0  0  0  0  0  0  0  0
   -5.3345  -15.9640   12.2183 C   0  0  0  0  0  0  0  0  0  0  0  0
   -6.3867  -16.3768   12.6569 O   0  0  0  0  0  0  0  0  0  0  0  0
   -4.0034  -16.7460   12.5033 B   0  0  0  0  0  0  0  0  0  0  0  0
  1  2  1  0
  2  3  2  0
  2  4  1  0
  4  5  1  0
  4  6  1  0
  6  7  1  0
  7  8  1  0
  8  9  2  0
  8 10  1  0
M  END
>  <Gold.Gold.Protein.RotatedWaterAtoms>  (442) 


>  <Gold.Id.Protein>  (442) 


>  <Gold.PLP.Chemscore.CHOScore>  (442) 
0.0000

>  <Gold.PLP.Chemscore.Hbond>  (442) 
2.0000

>  <Gold.PLP.Chemscore.Internal.Correction>  (442) 
0.0014

>  <Gold.PLP.Chemscore.Metal>  (442) 
0.0000

>  <Gold.PLP.Fitness>  (442) 
36.2775

>  <Gold.PLP.PLP>  (442) 
-31.3716

>  <Gold.PLP.ligand.clash>  (442) 
0.0000

>  <Gold.PLP.ligand.torsion>  (442) 
0.5477

>  <Gold.PLP.part.buried>  (442) 
-7.2540

>  <Gold.PLP.part.hbond>  (442) 
-3.7491

>  <Gold.PLP.part.metal>  (442) 
0.0000

>  <Gold.PLP.part.nonpolar>  (442) 
-20.6297

>  <Gold.PLP.part.repulsive>  (442) 
0.4401

>  <Gold.Protein.RotatedAtoms>  (442) 


>  <Gold.Protein.RotatedTorsions>  (442) 


>  <Gold.Protein.RotatedWaterAtoms>  (442) 


>  <Gold.Version>  (442) 
5.3.0

>  <PLP.Chemscore.CHOScore>  (442) 


>  <PLP.Chemscore.Hbond>  (442) 


>  <PLP.Chemscore.Internal.Correction>  (442) 


>  <PLP.Chemscore.Metal>  (442) 


>  <PLP.Fitness>  (442) 


>  <PLP.PLP>  (442) 


>  <PLP.ligand.clash>  (442) 


>  <PLP.ligand.torsion>  (442) 


>  <PLP.part.buried>  (442) 


>  <PLP.part.hbond>  (442) 


>  <PLP.part.metal>  (442) 


>  <PLP.part.nonpolar>  (442) 


>  <PLP.part.repulsive>  (442) 


>  <Version>  (442) 


$$$$
94|664022_40|Aromatic_carboxylic_acids_F|sdf|24|dock1|1
     RDKit          3D

 12 12  0  0  0  0  0  0  0  0999 V2000
   -8.2596  -17.1212   11.4595 C   0  0  0  0  0  0  0  0  0  0  0  0
   -7.6366  -15.8367   11.6688 N   0  0  0  0  0  0  0  0  0  0  0  0
   -8.3409  -14.6553   11.5719 C   0  0  0  0  0  0  0  0  0  0  0  0
   -9.5296  -14.5547   11.2978 O   0  0  0  0  0  0  0  0  0  0  0  0
   -7.5420  -13.4431   11.8503 C   0  0  0  0  0  0  0  0  0  0  0  0
   -8.1627  -12.1983   11.6738 C   0  0  0  0  0  0  0  0  0  0  0  0
   -7.4390  -11.0301   11.9055 C   0  0  0  0  0  0  0  0  0  0  0  0
   -6.1069  -11.0910   12.3103 C   0  0  0  0  0  0  0  0  0  0  0  0
   -5.4897  -12.3324   12.4853 C   0  0  0  0  0  0  0  0  0  0  0  0
   -6.2035  -13.5136   12.2549 C   0  0  0  0  0  0  0  0  0  0  0  0
   -5.3062  -15.1564   12.5638 Br  0  0  0  0  0  0  0  0  0  0  0  0
   -8.1960   -9.5005   11.6887 Cl  0  0  0  0  0  0  0  0  0  0  0  0
  1  2  1  0
  2  3  1  0
  3  4  2  0
  3  5  1  0
  5  6  2  0
  5 10  1  0
  6  7  1  0
  7  8  2  0
  7 12  1  0
  8  9  1  0
  9 10  2  0
 10 11  1  0
M  END
>  <Gold.Gold.Protein.RotatedWaterAtoms>  (443) 


>  <Gold.Id.Protein>  (443) 


>  <Gold.PLP.Chemscore.CHOScore>  (443) 
0.0000

>  <Gold.PLP.Chemscore.Hbond>  (443) 
0.4160

>  <Gold.PLP.Chemscore.Internal.Correction>  (443) 
0.0004

>  <Gold.PLP.Chemscore.Metal>  (443) 
0.0000

>  <Gold.PLP.Fitness>  (443) 
48.9046

>  <Gold.PLP.PLP>  (443) 
-47.6744

>  <Gold.PLP.ligand.clash>  (443) 
0.0000

>  <Gold.PLP.ligand.torsion>  (443) 
0.0091

>  <Gold.PLP.part.buried>  (443) 
-7.3578

>  <Gold.PLP.part.hbond>  (443) 
-0.5127

>  <Gold.PLP.part.metal>  (443) 
0.0000

>  <Gold.PLP.part.nonpolar>  (443) 
-40.3098

>  <Gold.PLP.part.repulsive>  (443) 
0.1684

>  <Gold.Protein.RotatedAtoms>  (443) 


>  <Gold.Protein.RotatedTorsions>  (443) 


>  <Gold.Protein.RotatedWaterAtoms>  (443) 


>  <Gold.Version>  (443) 
5.3.0

>  <PLP.Chemscore.CHOScore>  (443) 


>  <PLP.Chemscore.Hbond>  (443) 


>  <PLP.Chemscore.Internal.Correction>  (443) 


>  <PLP.Chemscore.Metal>  (443) 


>  <PLP.Fitness>  (443) 


>  <PLP.PLP>  (443) 


>  <PLP.ligand.clash>  (443) 


>  <PLP.ligand.torsion>  (443) 


>  <PLP.part.buried>  (443) 


>  <PLP.part.hbond>  (443) 


>  <PLP.part.metal>  (443) 


>  <PLP.part.nonpolar>  (443) 


>  <PLP.part.repulsive>  (443) 


>  <RMSD>  (443) 
0.30972197429

>  <Torsion>  (443) 
172.929186758

>  <TorsionO>  (443) 
24.4968065243

>  <TorsionR>  (443) 
162.574006718

>  <Version>  (443) 


>  <product>  (443) 
55|Compound_24|Compounds_3D_F|sdf|10|dock2|1

>  <rmsd>  (443) 
-1

$$$$
110|565385_49|Aromatic_carboxylic_acids_F|sdf|29|dock1|1
     RDKit          3D

 13 13  0  0  0  0  0  0  0  0999 V2000
  -10.1118  -17.9021   11.6320 C   0  0  0  0  0  0  0  0  0  0  0  0
   -9.7537  -16.5043   11.6546 N   0  0  0  0  0  0  0  0  0  0  0  0
   -8.4330  -16.1187   11.7930 C   0  0  0  0  0  0  0  0  0  0  0  0
   -7.5159  -16.9298   11.9008 O   0  0  0  0  0  0  0  0  0  0  0  0
   -8.1234  -14.6552   11.8105 C   0  0  0  0  0  0  0  0  0  0  0  0
   -9.0636  -13.6551   11.5375 C   0  0  0  0  0  0  0  0  0  0  0  0
   -8.6966  -12.3009   11.5726 C   0  0  0  0  0  0  0  0  0  0  0  0
   -7.3879  -11.9195   11.8809 C   0  0  0  0  0  0  0  0  0  0  0  0
   -6.4486  -12.9235   12.1551 C   0  0  0  0  0  0  0  0  0  0  0  0
   -6.8098  -14.2750   12.1207 C   0  0  0  0  0  0  0  0  0  0  0  0
   -4.6444  -12.5025   12.5849 Br  0  0  0  0  0  0  0  0  0  0  0  0
   -6.9476  -10.6242   11.9372 O   0  0  0  0  0  0  0  0  0  0  0  0
   -7.9020   -9.5910   11.7256 C   0  0  0  0  0  0  0  0  0  0  0  0
  1  2  1  0
  2  3  1  0
  3  4  2  0
  3  5  1  0
  5  6  2  0
  5 10  1  0
  6  7  1  0
  7  8  2  0
  8  9  1  0
  8 12  1  0
  9 10  2  0
  9 11  1  0
 12 13  1  0
M  END
>  <Gold.Gold.Protein.RotatedWaterAtoms>  (444) 


>  <Gold.Id.Protein>  (444) 


>  <Gold.PLP.Chemscore.CHOScore>  (444) 
0.0000

>  <Gold.PLP.Chemscore.Hbond>  (444) 
1.0000

>  <Gold.PLP.Chemscore.Internal.Correction>  (444) 
0.0000

>  <Gold.PLP.Chemscore.Metal>  (444) 
0.0000

>  <Gold.PLP.Fitness>  (444) 
43.9775

>  <Gold.PLP.PLP>  (444) 
-41.0517

>  <Gold.PLP.ligand.clash>  (444) 
0.0000

>  <Gold.PLP.ligand.torsion>  (444) 
0.0371

>  <Gold.PLP.part.buried>  (444) 
-3.7367

>  <Gold.PLP.part.hbond>  (444) 
-1.0000

>  <Gold.PLP.part.metal>  (444) 
0.0000

>  <Gold.PLP.part.nonpolar>  (444) 
-36.7483

>  <Gold.PLP.part.repulsive>  (444) 
0.4054

>  <Gold.Protein.RotatedAtoms>  (444) 


>  <Gold.Protein.RotatedTorsions>  (444) 


>  <Gold.Protein.RotatedWaterAtoms>  (444) 


>  <Gold.Version>  (444) 
5.3.0

>  <PLP.Chemscore.CHOScore>  (444) 


>  <PLP.Chemscore.Hbond>  (444) 


>  <PLP.Chemscore.Internal.Correction>  (444) 


>  <PLP.Chemscore.Metal>  (444) 


>  <PLP.Fitness>  (444) 


>  <PLP.PLP>  (444) 


>  <PLP.ligand.clash>  (444) 


>  <PLP.ligand.torsion>  (444) 


>  <PLP.part.buried>  (444) 


>  <PLP.part.hbond>  (444) 


>  <PLP.part.metal>  (444) 


>  <PLP.part.nonpolar>  (444) 


>  <PLP.part.repulsive>  (444) 


>  <RMSD>  (444) 
0.319376411377

>  <Torsion>  (444) 
169.460450784

>  <TorsionO>  (444) 
9.7963905484

>  <TorsionR>  (444) 
179.256841332

>  <Version>  (444) 


>  <product>  (444) 
55|Compound_24|Compounds_3D_F|sdf|10|dock2|1

>  <rmsd>  (444) 
-1

$$$$
128|137677_56|Aromatic_carboxylic_acids_F|sdf|33|dock1|1
     RDKit          3D

 11 11  0  0  0  0  0  0  0  0999 V2000
   -8.6116  -16.1544   11.8887 C   0  0  0  0  0  0  0  0  0  0  0  0
   -7.9978  -14.8484   11.9215 N   0  0  0  0  0  0  0  0  0  0  0  0
   -8.7778  -13.7008   11.8756 C   0  0  0  0  0  0  0  0  0  0  0  0
  -10.0002  -13.7896   11.8139 O   0  0  0  0  0  0  0  0  0  0  0  0
   -8.0808  -12.3609   11.9017 C   0  0  0  0  0  0  0  0  0  0  0  0
   -8.7916  -11.1851   11.5813 C   0  0  0  0  0  0  0  0  0  0  0  0
   -8.1781   -9.9267   11.5989 C   0  0  0  0  0  0  0  0  0  0  0  0
   -6.8391   -9.8089   11.9369 C   0  0  0  0  0  0  0  0  0  0  0  0
   -6.1124  -10.9502   12.2575 C   0  0  0  0  0  0  0  0  0  0  0  0
   -6.7171  -12.2196   12.2428 C   0  0  0  0  0  0  0  0  0  0  0  0
   -5.5419  -13.6455   12.7121 Br  0  0  0  0  0  0  0  0  0  0  0  0
  1  2  1  0
  2  3  1  0
  3  4  2  0
  3  5  1  0
  5  6  2  0
  5 10  1  0
  6  7  1  0
  7  8  2  0
  8  9  1  0
  9 10  2  0
 10 11  1  0
M  END
>  <Gold.Gold.Protein.RotatedWaterAtoms>  (445) 


>  <Gold.Id.Protein>  (445) 


>  <Gold.PLP.Chemscore.CHOScore>  (445) 
0.0000

>  <Gold.PLP.Chemscore.Hbond>  (445) 
1.0000

>  <Gold.PLP.Chemscore.Internal.Correction>  (445) 
0.0000

>  <Gold.PLP.Chemscore.Metal>  (445) 
0.0000

>  <Gold.PLP.Fitness>  (445) 
45.2899

>  <Gold.PLP.PLP>  (445) 
-42.4444

>  <Gold.PLP.ligand.clash>  (445) 
0.0000

>  <Gold.PLP.ligand.torsion>  (445) 
0.0772

>  <Gold.PLP.part.buried>  (445) 
-6.4690

>  <Gold.PLP.part.hbond>  (445) 
-0.6863

>  <Gold.PLP.part.metal>  (445) 
0.0000

>  <Gold.PLP.part.nonpolar>  (445) 
-34.8280

>  <Gold.PLP.part.repulsive>  (445) 
0.1963

>  <Gold.Protein.RotatedAtoms>  (445) 


>  <Gold.Protein.RotatedTorsions>  (445) 


>  <Gold.Protein.RotatedWaterAtoms>  (445) 


>  <Gold.Version>  (445) 
5.3.0

>  <PLP.Chemscore.CHOScore>  (445) 


>  <PLP.Chemscore.Hbond>  (445) 


>  <PLP.Chemscore.Internal.Correction>  (445) 


>  <PLP.Chemscore.Metal>  (445) 


>  <PLP.Fitness>  (445) 


>  <PLP.PLP>  (445) 


>  <PLP.ligand.clash>  (445) 


>  <PLP.ligand.torsion>  (445) 


>  <PLP.part.buried>  (445) 


>  <PLP.part.hbond>  (445) 


>  <PLP.part.metal>  (445) 


>  <PLP.part.nonpolar>  (445) 


>  <PLP.part.repulsive>  (445) 


>  <RMSD>  (445) 
0.428070490903

>  <Torsion>  (445) 
152.444048788

>  <TorsionO>  (445) 
39.0580871276

>  <TorsionR>  (445) 
168.497864085

>  <Version>  (445) 


>  <product>  (445) 
55|Compound_24|Compounds_3D_F|sdf|10|dock2|1

>  <rmsd>  (445) 
-1

$$$$
974|750794_1404|Aromatic_primary_amines_F|sdf|194|dock3|1
     RDKit          3D

 14 14  0  0  0  0  0  0  0  0999 V2000
  -13.6355  -18.1936    9.4145 C   0  0  0  0  0  0  0  0  0  0  0  0
  -13.2544  -19.4497   10.1732 C   0  0  0  0  0  0  0  0  0  0  0  0
  -11.8731  -19.3506   10.5383 O   0  0  0  0  0  0  0  0  0  0  0  0
  -11.6148  -18.5085   11.5823 C   0  0  0  0  0  0  0  0  0  0  0  0
  -12.3947  -18.2810   12.5004 O   0  0  0  0  0  0  0  0  0  0  0  0
  -10.3031  -17.8985   11.4902 C   0  0  0  0  0  0  0  0  0  0  0  0
   -9.1673  -18.4974   10.9931 C   0  0  0  0  0  0  0  0  0  0  0  0
   -8.1448  -17.6055   11.0758 O   0  0  0  0  0  0  0  0  0  0  0  0
   -8.7110  -16.4917   11.6237 C   0  0  0  0  0  0  0  0  0  0  0  0
   -9.9933  -16.6110   11.8915 N   0  0  0  0  0  0  0  0  0  0  0  0
   -7.9611  -15.3718   11.8549 N   0  0  0  0  0  0  0  0  0  0  0  0
   -8.5046  -14.1249   12.0676 C   0  0  0  0  0  0  0  0  0  0  0  0
   -9.6950  -13.8313   12.1035 O   0  0  0  0  0  0  0  0  0  0  0  0
   -7.4448  -13.0785   12.3021 C   0  0  0  0  0  0  0  0  0  0  0  0
  1  2  1  0
  2  3  1  0
  3  4  1  0
  4  5  2  0
  4  6  1  0
  6  7  2  0
  6 10  1  0
  7  8  1  0
  8  9  1  0
  9 10  2  0
  9 11  1  0
 11 12  1  0
 12 13  2  0
 12 14  1  0
M  END
>  <Gold.Gold.Protein.RotatedWaterAtoms>  (446) 


>  <Gold.Id.Protein>  (446) 


>  <Gold.PLP.Chemscore.CHOScore>  (446) 
0.0000

>  <Gold.PLP.Chemscore.Hbond>  (446) 
2.0000

>  <Gold.PLP.Chemscore.Internal.Correction>  (446) 
0.0053

>  <Gold.PLP.Chemscore.Metal>  (446) 
0.0000

>  <Gold.PLP.Fitness>  (446) 
36.8047

>  <Gold.PLP.PLP>  (446) 
-32.7996

>  <Gold.PLP.ligand.clash>  (446) 
0.0000

>  <Gold.PLP.ligand.torsion>  (446) 
1.0001

>  <Gold.PLP.part.buried>  (446) 
-6.5206

>  <Gold.PLP.part.hbond>  (446) 
-2.9156

>  <Gold.PLP.part.metal>  (446) 
0.0000

>  <Gold.PLP.part.nonpolar>  (446) 
-23.4080

>  <Gold.PLP.part.repulsive>  (446) 
0.3100

>  <Gold.Protein.RotatedAtoms>  (446) 


>  <Gold.Protein.RotatedTorsions>  (446) 


>  <Gold.Protein.RotatedWaterAtoms>  (446) 


>  <Gold.Version>  (446) 
5.3.0

>  <PLP.Chemscore.CHOScore>  (446) 


>  <PLP.Chemscore.Hbond>  (446) 


>  <PLP.Chemscore.Internal.Correction>  (446) 


>  <PLP.Chemscore.Metal>  (446) 


>  <PLP.Fitness>  (446) 


>  <PLP.PLP>  (446) 


>  <PLP.ligand.clash>  (446) 


>  <PLP.ligand.torsion>  (446) 


>  <PLP.part.buried>  (446) 


>  <PLP.part.hbond>  (446) 


>  <PLP.part.metal>  (446) 


>  <PLP.part.nonpolar>  (446) 


>  <PLP.part.repulsive>  (446) 


>  <RMSD>  (446) 
0.499949349045

>  <Torsion>  (446) 
159.973716791

>  <TorsionO>  (446) 
19.1052109979

>  <TorsionR>  (446) 
179.078927789

>  <Version>  (446) 


>  <product>  (446) 
55|Compound_24|Compounds_3D_F|sdf|10|dock2|1

>  <rmsd>  (446) 
-1

$$$$
1884|M3006_1781|Aromatic_primary_amines_F|sdf|361|dock3|1
     RDKit          3D

 31 34  0  0  0  0  0  0  0  0999 V2000
  -14.4210  -19.8971    8.7934 C   0  0  0  0  0  0  0  0  0  0  0  0
  -13.9762  -19.4927   10.1894 C   0  0  0  0  0  0  0  0  0  0  0  0
  -14.1356  -20.6409   11.1817 C   0  0  0  0  0  0  0  0  0  0  0  0
  -13.5197  -20.3070   12.5189 C   0  0  0  0  0  0  0  0  0  0  0  0
  -12.9307  -19.2724   12.7954 O   0  0  0  0  0  0  0  0  0  0  0  0
  -13.7110  -21.3451   13.3845 O   0  0  0  0  0  0  0  0  0  0  0  0
  -12.9425  -21.2698   14.5900 C   0  0  0  0  0  0  0  0  0  0  0  0
  -12.8849  -22.6189   15.2889 C   0  0  0  0  0  0  0  0  0  0  0  0
  -11.6552  -22.4172   16.1494 C   0  0  0  0  0  0  0  0  0  0  0  0
  -11.2420  -23.7410   16.7624 C   0  0  0  0  0  0  0  0  0  0  0  0
  -12.3024  -24.2223   17.5862 O   0  0  0  0  0  0  0  0  0  0  0  0
  -13.7888  -24.3384   16.9603 P   0  0  0  0  0  0  0  0  0  0  0  0
  -14.8775  -24.6795   17.9243 O   0  0  0  0  0  0  0  0  0  0  0  0
  -13.9839  -22.9641   16.1174 O   0  0  0  0  0  0  0  0  0  0  0  0
  -13.5991  -25.4435   15.8075 O   0  0  0  0  0  0  0  0  0  0  0  0
  -10.6922  -21.8161   15.2889 O   0  0  0  0  0  0  0  0  0  0  0  0
  -11.4338  -20.9664   14.3653 C   0  0  0  0  0  0  0  0  0  0  0  0
  -10.9052  -21.2017   13.0342 N   0  0  0  0  0  0  0  0  0  0  0  0
  -10.7814  -22.4114   12.4013 C   0  0  0  0  0  0  0  0  0  0  0  0
  -10.2640  -22.2918   11.1953 N   0  0  0  0  0  0  0  0  0  0  0  0
  -10.0274  -20.9476   11.0424 C   0  0  0  0  0  0  0  0  0  0  0  0
  -10.4203  -20.2487   12.1733 C   0  0  0  0  0  0  0  0  0  0  0  0
  -10.3338  -18.9216   12.3641 N   0  0  0  0  0  0  0  0  0  0  0  0
   -9.8057  -18.2730   11.3024 C   0  0  0  0  0  0  0  0  0  0  0  0
   -9.3808  -18.8370   10.1545 N   0  0  0  0  0  0  0  0  0  0  0  0
   -9.4895  -20.1691   10.0244 C   0  0  0  0  0  0  0  0  0  0  0  0
   -9.0330  -20.6622    8.8349 O   0  0  0  0  0  0  0  0  0  0  0  0
   -9.7222  -16.8901   11.4793 N   0  0  0  0  0  0  0  0  0  0  0  0
   -8.5796  -16.1798   11.7761 C   0  0  0  0  0  0  0  0  0  0  0  0
   -7.4445  -16.6221   11.9131 O   0  0  0  0  0  0  0  0  0  0  0  0
   -8.8524  -14.7024   11.8973 C   0  0  0  0  0  0  0  0  0  0  0  0
  1  2  1  0
  2  3  1  0
  3  4  1  0
  4  5  2  0
  4  6  1  0
  6  7  1  0
  7  8  1  0
  7 17  1  0
  8  9  1  0
  8 14  1  0
  9 10  1  0
  9 16  1  0
 10 11  1  0
 11 12  1  0
 12 13  2  0
 12 14  1  0
 12 15  1  0
 16 17  1  0
 17 18  1  0
 18 19  1  0
 18 22  1  0
 19 20  2  0
 20 21  1  0
 21 22  2  0
 21 26  1  0
 22 23  1  0
 23 24  2  0
 24 25  1  0
 24 28  1  0
 25 26  2  0
 26 27  1  0
 28 29  1  0
 29 30  2  0
 29 31  1  0
M  END
>  <Gold.Gold.Protein.RotatedWaterAtoms>  (447) 


>  <Gold.Id.Protein>  (447) 


>  <Gold.PLP.Chemscore.CHOScore>  (447) 
0.0000

>  <Gold.PLP.Chemscore.Hbond>  (447) 
1.2080

>  <Gold.PLP.Chemscore.Internal.Correction>  (447) 
0.1232

>  <Gold.PLP.Chemscore.Metal>  (447) 
0.0000

>  <Gold.PLP.Fitness>  (447) 
47.7145

>  <Gold.PLP.PLP>  (447) 
-46.0218

>  <Gold.PLP.ligand.clash>  (447) 
0.0000

>  <Gold.PLP.ligand.torsion>  (447) 
1.0272

>  <Gold.PLP.part.buried>  (447) 
-2.2958

>  <Gold.PLP.part.hbond>  (447) 
-4.0214

>  <Gold.PLP.part.metal>  (447) 
0.0000

>  <Gold.PLP.part.nonpolar>  (447) 
-41.4699

>  <Gold.PLP.part.repulsive>  (447) 
0.9524

>  <Gold.Protein.RotatedAtoms>  (447) 


>  <Gold.Protein.RotatedTorsions>  (447) 


>  <Gold.Protein.RotatedWaterAtoms>  (447) 


>  <Gold.Version>  (447) 
5.3.0

>  <PLP.Chemscore.CHOScore>  (447) 


>  <PLP.Chemscore.Hbond>  (447) 


>  <PLP.Chemscore.Internal.Correction>  (447) 


>  <PLP.Chemscore.Metal>  (447) 


>  <PLP.Fitness>  (447) 


>  <PLP.PLP>  (447) 


>  <PLP.ligand.clash>  (447) 


>  <PLP.ligand.torsion>  (447) 


>  <PLP.part.buried>  (447) 


>  <PLP.part.hbond>  (447) 


>  <PLP.part.metal>  (447) 


>  <PLP.part.nonpolar>  (447) 


>  <PLP.part.repulsive>  (447) 


>  <RMSD>  (447) 
0.291955871297

>  <Torsion>  (447) 
171.923704933

>  <TorsionO>  (447) 
6.03609353985

>  <TorsionR>  (447) 
177.959798473

>  <Version>  (447) 


>  <product>  (447) 
55|Compound_24|Compounds_3D_F|sdf|10|dock2|1

>  <rmsd>  (447) 
-1

$$$$
193|32168_281|Aromatic_primary_amines_F|sdf|39|dock6|1
     RDKit          3D

 23 25  0  0  0  0  0  0  0  0999 V2000
   -7.8439  -12.1461   11.8919 C   0  0  0  0  0  0  0  0  0  0  0  0
   -8.5691  -13.4472   11.6781 C   0  0  0  0  0  0  0  0  0  0  0  0
   -9.7886  -13.4981   11.5208 O   0  0  0  0  0  0  0  0  0  0  0  0
   -7.7264  -14.5390   11.7020 N   0  0  0  0  0  0  0  0  0  0  0  0
   -8.1889  -15.8197   11.5323 C   0  0  0  0  0  0  0  0  0  0  0  0
   -9.4747  -16.2039   11.8163 N   0  0  0  0  0  0  0  0  0  0  0  0
   -9.5964  -17.5375   11.5379 C   0  0  0  0  0  0  0  0  0  0  0  0
  -10.6643  -18.4283   11.6415 C   0  0  0  0  0  0  0  0  0  0  0  0
  -10.4051  -19.7586   11.2778 C   0  0  0  0  0  0  0  0  0  0  0  0
   -9.1530  -20.1507   10.7795 C   0  0  0  0  0  0  0  0  0  0  0  0
   -8.1017  -19.2294   10.6839 C   0  0  0  0  0  0  0  0  0  0  0  0
   -8.3349  -17.9032   11.0783 C   0  0  0  0  0  0  0  0  0  0  0  0
   -7.4773  -16.8281   11.0838 N   0  0  0  0  0  0  0  0  0  0  0  0
   -8.8530  -21.7658   10.2429 Cl  0  0  0  0  0  0  0  0  0  0  0  0
  -11.4669  -20.6323   11.3734 O   0  0  0  0  0  0  0  0  0  0  0  0
  -12.5262  -20.4408   10.5053 C   0  0  0  0  0  0  0  0  0  0  0  0
  -13.3188  -19.2846   10.5304 C   0  0  0  0  0  0  0  0  0  0  0  0
  -14.3665  -19.1344    9.6224 C   0  0  0  0  0  0  0  0  0  0  0  0
  -14.6219  -20.1279    8.6796 C   0  0  0  0  0  0  0  0  0  0  0  0
  -13.8238  -21.2756    8.6345 C   0  0  0  0  0  0  0  0  0  0  0  0
  -12.7674  -21.4342    9.5416 C   0  0  0  0  0  0  0  0  0  0  0  0
  -11.7588  -22.8458    9.4996 Cl  0  0  0  0  0  0  0  0  0  0  0  0
  -14.1988  -22.4584    7.4296 Cl  0  0  0  0  0  0  0  0  0  0  0  0
  1  2  1  0
  2  3  2  0
  2  4  1  0
  4  5  1  0
  5  6  1  0
  5 13  2  0
  6  7  1  0
  7  8  2  0
  7 12  1  0
  8  9  1  0
  9 10  2  0
  9 15  1  0
 10 11  1  0
 10 14  1  0
 11 12  2  0
 12 13  1  0
 15 16  1  0
 16 17  2  0
 16 21  1  0
 17 18  1  0
 18 19  2  0
 19 20  1  0
 20 21  2  0
 20 23  1  0
 21 22  1  0
M  END
>  <Gold.Gold.Protein.RotatedWaterAtoms>  (448) 


>  <Gold.Id.Protein>  (448) 


>  <Gold.PLP.Chemscore.CHOScore>  (448) 
0.0000

>  <Gold.PLP.Chemscore.Hbond>  (448) 
1.0000

>  <Gold.PLP.Chemscore.Internal.Correction>  (448) 
0.0086

>  <Gold.PLP.Chemscore.Metal>  (448) 
0.0000

>  <Gold.PLP.Fitness>  (448) 
50.7139

>  <Gold.PLP.PLP>  (448) 
-48.1706

>  <Gold.PLP.ligand.clash>  (448) 
0.0000

>  <Gold.PLP.ligand.torsion>  (448) 
0.2327

>  <Gold.PLP.part.buried>  (448) 
-6.5205

>  <Gold.PLP.part.hbond>  (448) 
-2.0000

>  <Gold.PLP.part.metal>  (448) 
0.0000

>  <Gold.PLP.part.nonpolar>  (448) 
-39.3857

>  <Gold.PLP.part.repulsive>  (448) 
0.3298

>  <Gold.Protein.RotatedAtoms>  (448) 


>  <Gold.Protein.RotatedTorsions>  (448) 


>  <Gold.Protein.RotatedWaterAtoms>  (448) 


>  <Gold.Version>  (448) 
5.3.0

>  <PLP.Chemscore.CHOScore>  (448) 


>  <PLP.Chemscore.Hbond>  (448) 


>  <PLP.Chemscore.Internal.Correction>  (448) 


>  <PLP.Chemscore.Metal>  (448) 


>  <PLP.Fitness>  (448) 


>  <PLP.PLP>  (448) 


>  <PLP.ligand.clash>  (448) 


>  <PLP.ligand.torsion>  (448) 


>  <PLP.part.buried>  (448) 


>  <PLP.part.hbond>  (448) 


>  <PLP.part.metal>  (448) 


>  <PLP.part.nonpolar>  (448) 


>  <PLP.part.repulsive>  (448) 


>  <RMSD>  (448) 
0.439733510035

>  <Torsion>  (448) 
177.672185574

>  <TorsionO>  (448) 
4.31728583372

>  <TorsionR>  (448) 
173.35489974

>  <Version>  (448) 


>  <product>  (448) 
55|Compound_24|Compounds_3D_F|sdf|10|dock2|1

>  <rmsd>  (448) 
-1

$$$$
46|Compound_23|Compounds_3D_F|sdf|9|dock1|1
     RDKit          3D

 11 10  0  0  0  0  0  0  0  0999 V2000
   -3.3149  -16.3941   10.6435 O   0  0  0  0  0  0  0  0  0  0  0  0
   -4.3230  -16.6369   11.4947 C   0  0  0  0  0  0  0  0  0  0  0  0
   -4.2947  -17.6164   12.2026 O   0  0  0  0  0  0  0  0  0  0  0  0
   -5.4922  -15.6887   11.5684 C   0  0  0  0  0  0  0  0  0  0  0  0
   -5.0191  -14.3615   11.9696 N   0  0  0  0  0  0  0  0  0  0  0  0
   -5.8909  -13.3385   12.0744 C   0  0  0  0  0  0  0  0  0  0  0  0
   -7.0664  -13.5173   11.8378 O   0  0  0  0  0  0  0  0  0  0  0  0
   -5.3837  -11.9165   12.5045 B   0  0  0  0  0  0  0  0  0  0  0  0
   -6.5013  -16.2024   12.5971 C   0  0  0  0  0  0  0  0  0  0  0  0
   -6.1636  -15.5982   10.1962 C   0  0  0  0  0  0  0  0  0  0  0  0
   -5.1989  -15.2001    9.2205 O   0  0  0  0  0  0  0  0  0  0  0  0
  1  2  1  0
  2  3  2  0
  2  4  1  0
  4  5  1  0
  4  9  1  0
  4 10  1  0
  5  6  1  0
  6  7  2  0
  6  8  1  0
 10 11  1  0
M  END
>  <Gold.Gold.Protein.RotatedWaterAtoms>  (449) 


>  <Gold.Id.Protein>  (449) 


>  <Gold.PLP.Chemscore.CHOScore>  (449) 
0.0000

>  <Gold.PLP.Chemscore.Hbond>  (449) 
3.0243

>  <Gold.PLP.Chemscore.Internal.Correction>  (449) 
0.0017

>  <Gold.PLP.Chemscore.Metal>  (449) 
0.0000

>  <Gold.PLP.Fitness>  (449) 
37.1625

>  <Gold.PLP.PLP>  (449) 
-28.1168

>  <Gold.PLP.ligand.clash>  (449) 
0.0000

>  <Gold.PLP.ligand.torsion>  (449) 
0.0144

>  <Gold.PLP.part.buried>  (449) 
-6.1846

>  <Gold.PLP.part.hbond>  (449) 
-5.1741

>  <Gold.PLP.part.metal>  (449) 
0.0000

>  <Gold.PLP.part.nonpolar>  (449) 
-18.0215

>  <Gold.PLP.part.repulsive>  (449) 
0.2702

>  <Gold.Protein.RotatedAtoms>  (449) 


>  <Gold.Protein.RotatedTorsions>  (449) 


>  <Gold.Protein.RotatedWaterAtoms>  (449) 


>  <Gold.Version>  (449) 
5.3.0

>  <PLP.Chemscore.CHOScore>  (449) 


>  <PLP.Chemscore.Hbond>  (449) 


>  <PLP.Chemscore.Internal.Correction>  (449) 


>  <PLP.Chemscore.Metal>  (449) 


>  <PLP.Fitness>  (449) 


>  <PLP.PLP>  (449) 


>  <PLP.ligand.clash>  (449) 


>  <PLP.ligand.torsion>  (449) 


>  <PLP.part.buried>  (449) 


>  <PLP.part.hbond>  (449) 


>  <PLP.part.metal>  (449) 


>  <PLP.part.nonpolar>  (449) 


>  <PLP.part.repulsive>  (449) 


>  <Version>  (449) 


$$$$
94|664022_40|Aromatic_carboxylic_acids_F|sdf|24|dock1|1
     RDKit          3D

 12 12  0  0  0  0  0  0  0  0999 V2000
   -8.2596  -17.1212   11.4595 C   0  0  0  0  0  0  0  0  0  0  0  0
   -7.6366  -15.8367   11.6688 N   0  0  0  0  0  0  0  0  0  0  0  0
   -8.3409  -14.6553   11.5719 C   0  0  0  0  0  0  0  0  0  0  0  0
   -9.5296  -14.5547   11.2978 O   0  0  0  0  0  0  0  0  0  0  0  0
   -7.5420  -13.4431   11.8503 C   0  0  0  0  0  0  0  0  0  0  0  0
   -8.1627  -12.1983   11.6738 C   0  0  0  0  0  0  0  0  0  0  0  0
   -7.4390  -11.0301   11.9055 C   0  0  0  0  0  0  0  0  0  0  0  0
   -6.1069  -11.0910   12.3103 C   0  0  0  0  0  0  0  0  0  0  0  0
   -5.4897  -12.3324   12.4853 C   0  0  0  0  0  0  0  0  0  0  0  0
   -6.2035  -13.5136   12.2549 C   0  0  0  0  0  0  0  0  0  0  0  0
   -5.3062  -15.1564   12.5638 Br  0  0  0  0  0  0  0  0  0  0  0  0
   -8.1960   -9.5005   11.6887 Cl  0  0  0  0  0  0  0  0  0  0  0  0
  1  2  1  0
  2  3  1  0
  3  4  2  0
  3  5  1  0
  5  6  2  0
  5 10  1  0
  6  7  1  0
  7  8  2  0
  7 12  1  0
  8  9  1  0
  9 10  2  0
 10 11  1  0
M  END
>  <Gold.Gold.Protein.RotatedWaterAtoms>  (450) 


>  <Gold.Id.Protein>  (450) 


>  <Gold.PLP.Chemscore.CHOScore>  (450) 
0.0000

>  <Gold.PLP.Chemscore.Hbond>  (450) 
0.4160

>  <Gold.PLP.Chemscore.Internal.Correction>  (450) 
0.0004

>  <Gold.PLP.Chemscore.Metal>  (450) 
0.0000

>  <Gold.PLP.Fitness>  (450) 
48.9046

>  <Gold.PLP.PLP>  (450) 
-47.6744

>  <Gold.PLP.ligand.clash>  (450) 
0.0000

>  <Gold.PLP.ligand.torsion>  (450) 
0.0091

>  <Gold.PLP.part.buried>  (450) 
-7.3578

>  <Gold.PLP.part.hbond>  (450) 
-0.5127

>  <Gold.PLP.part.metal>  (450) 
0.0000

>  <Gold.PLP.part.nonpolar>  (450) 
-40.3098

>  <Gold.PLP.part.repulsive>  (450) 
0.1684

>  <Gold.Protein.RotatedAtoms>  (450) 


>  <Gold.Protein.RotatedTorsions>  (450) 


>  <Gold.Protein.RotatedWaterAtoms>  (450) 


>  <Gold.Version>  (450) 
5.3.0

>  <PLP.Chemscore.CHOScore>  (450) 


>  <PLP.Chemscore.Hbond>  (450) 


>  <PLP.Chemscore.Internal.Correction>  (450) 


>  <PLP.Chemscore.Metal>  (450) 


>  <PLP.Fitness>  (450) 


>  <PLP.PLP>  (450) 


>  <PLP.ligand.clash>  (450) 


>  <PLP.ligand.torsion>  (450) 


>  <PLP.part.buried>  (450) 


>  <PLP.part.hbond>  (450) 


>  <PLP.part.metal>  (450) 


>  <PLP.part.nonpolar>  (450) 


>  <PLP.part.repulsive>  (450) 


>  <RMSD>  (450) 
0.30972197429

>  <Torsion>  (450) 
172.929186758

>  <TorsionO>  (450) 
24.4968065243

>  <TorsionR>  (450) 
162.574006718

>  <Version>  (450) 


>  <product>  (450) 
46|Compound_23|Compounds_3D_F|sdf|9|dock1|1

>  <rmsd>  (450) 
-1

$$$$
110|565385_49|Aromatic_carboxylic_acids_F|sdf|29|dock1|1
     RDKit          3D

 13 13  0  0  0  0  0  0  0  0999 V2000
  -10.1118  -17.9021   11.6320 C   0  0  0  0  0  0  0  0  0  0  0  0
   -9.7537  -16.5043   11.6546 N   0  0  0  0  0  0  0  0  0  0  0  0
   -8.4330  -16.1187   11.7930 C   0  0  0  0  0  0  0  0  0  0  0  0
   -7.5159  -16.9298   11.9008 O   0  0  0  0  0  0  0  0  0  0  0  0
   -8.1234  -14.6552   11.8105 C   0  0  0  0  0  0  0  0  0  0  0  0
   -9.0636  -13.6551   11.5375 C   0  0  0  0  0  0  0  0  0  0  0  0
   -8.6966  -12.3009   11.5726 C   0  0  0  0  0  0  0  0  0  0  0  0
   -7.3879  -11.9195   11.8809 C   0  0  0  0  0  0  0  0  0  0  0  0
   -6.4486  -12.9235   12.1551 C   0  0  0  0  0  0  0  0  0  0  0  0
   -6.8098  -14.2750   12.1207 C   0  0  0  0  0  0  0  0  0  0  0  0
   -4.6444  -12.5025   12.5849 Br  0  0  0  0  0  0  0  0  0  0  0  0
   -6.9476  -10.6242   11.9372 O   0  0  0  0  0  0  0  0  0  0  0  0
   -7.9020   -9.5910   11.7256 C   0  0  0  0  0  0  0  0  0  0  0  0
  1  2  1  0
  2  3  1  0
  3  4  2  0
  3  5  1  0
  5  6  2  0
  5 10  1  0
  6  7  1  0
  7  8  2  0
  8  9  1  0
  8 12  1  0
  9 10  2  0
  9 11  1  0
 12 13  1  0
M  END
>  <Gold.Gold.Protein.RotatedWaterAtoms>  (451) 


>  <Gold.Id.Protein>  (451) 


>  <Gold.PLP.Chemscore.CHOScore>  (451) 
0.0000

>  <Gold.PLP.Chemscore.Hbond>  (451) 
1.0000

>  <Gold.PLP.Chemscore.Internal.Correction>  (451) 
0.0000

>  <Gold.PLP.Chemscore.Metal>  (451) 
0.0000

>  <Gold.PLP.Fitness>  (451) 
43.9775

>  <Gold.PLP.PLP>  (451) 
-41.0517

>  <Gold.PLP.ligand.clash>  (451) 
0.0000

>  <Gold.PLP.ligand.torsion>  (451) 
0.0371

>  <Gold.PLP.part.buried>  (451) 
-3.7367

>  <Gold.PLP.part.hbond>  (451) 
-1.0000

>  <Gold.PLP.part.metal>  (451) 
0.0000

>  <Gold.PLP.part.nonpolar>  (451) 
-36.7483

>  <Gold.PLP.part.repulsive>  (451) 
0.4054

>  <Gold.Protein.RotatedAtoms>  (451) 


>  <Gold.Protein.RotatedTorsions>  (451) 


>  <Gold.Protein.RotatedWaterAtoms>  (451) 


>  <Gold.Version>  (451) 
5.3.0

>  <PLP.Chemscore.CHOScore>  (451) 


>  <PLP.Chemscore.Hbond>  (451) 


>  <PLP.Chemscore.Internal.Correction>  (451) 


>  <PLP.Chemscore.Metal>  (451) 


>  <PLP.Fitness>  (451) 


>  <PLP.PLP>  (451) 


>  <PLP.ligand.clash>  (451) 


>  <PLP.ligand.torsion>  (451) 


>  <PLP.part.buried>  (451) 


>  <PLP.part.hbond>  (451) 


>  <PLP.part.metal>  (451) 


>  <PLP.part.nonpolar>  (451) 


>  <PLP.part.repulsive>  (451) 


>  <RMSD>  (451) 
0.319376411377

>  <Torsion>  (451) 
169.460450784

>  <TorsionO>  (451) 
9.7963905484

>  <TorsionR>  (451) 
179.256841332

>  <Version>  (451) 


>  <product>  (451) 
46|Compound_23|Compounds_3D_F|sdf|9|dock1|1

>  <rmsd>  (451) 
-1

$$$$
128|137677_56|Aromatic_carboxylic_acids_F|sdf|33|dock1|1
     RDKit          3D

 11 11  0  0  0  0  0  0  0  0999 V2000
   -8.6116  -16.1544   11.8887 C   0  0  0  0  0  0  0  0  0  0  0  0
   -7.9978  -14.8484   11.9215 N   0  0  0  0  0  0  0  0  0  0  0  0
   -8.7778  -13.7008   11.8756 C   0  0  0  0  0  0  0  0  0  0  0  0
  -10.0002  -13.7896   11.8139 O   0  0  0  0  0  0  0  0  0  0  0  0
   -8.0808  -12.3609   11.9017 C   0  0  0  0  0  0  0  0  0  0  0  0
   -8.7916  -11.1851   11.5813 C   0  0  0  0  0  0  0  0  0  0  0  0
   -8.1781   -9.9267   11.5989 C   0  0  0  0  0  0  0  0  0  0  0  0
   -6.8391   -9.8089   11.9369 C   0  0  0  0  0  0  0  0  0  0  0  0
   -6.1124  -10.9502   12.2575 C   0  0  0  0  0  0  0  0  0  0  0  0
   -6.7171  -12.2196   12.2428 C   0  0  0  0  0  0  0  0  0  0  0  0
   -5.5419  -13.6455   12.7121 Br  0  0  0  0  0  0  0  0  0  0  0  0
  1  2  1  0
  2  3  1  0
  3  4  2  0
  3  5  1  0
  5  6  2  0
  5 10  1  0
  6  7  1  0
  7  8  2  0
  8  9  1  0
  9 10  2  0
 10 11  1  0
M  END
>  <Gold.Gold.Protein.RotatedWaterAtoms>  (452) 


>  <Gold.Id.Protein>  (452) 


>  <Gold.PLP.Chemscore.CHOScore>  (452) 
0.0000

>  <Gold.PLP.Chemscore.Hbond>  (452) 
1.0000

>  <Gold.PLP.Chemscore.Internal.Correction>  (452) 
0.0000

>  <Gold.PLP.Chemscore.Metal>  (452) 
0.0000

>  <Gold.PLP.Fitness>  (452) 
45.2899

>  <Gold.PLP.PLP>  (452) 
-42.4444

>  <Gold.PLP.ligand.clash>  (452) 
0.0000

>  <Gold.PLP.ligand.torsion>  (452) 
0.0772

>  <Gold.PLP.part.buried>  (452) 
-6.4690

>  <Gold.PLP.part.hbond>  (452) 
-0.6863

>  <Gold.PLP.part.metal>  (452) 
0.0000

>  <Gold.PLP.part.nonpolar>  (452) 
-34.8280

>  <Gold.PLP.part.repulsive>  (452) 
0.1963

>  <Gold.Protein.RotatedAtoms>  (452) 


>  <Gold.Protein.RotatedTorsions>  (452) 


>  <Gold.Protein.RotatedWaterAtoms>  (452) 


>  <Gold.Version>  (452) 
5.3.0

>  <PLP.Chemscore.CHOScore>  (452) 


>  <PLP.Chemscore.Hbond>  (452) 


>  <PLP.Chemscore.Internal.Correction>  (452) 


>  <PLP.Chemscore.Metal>  (452) 


>  <PLP.Fitness>  (452) 


>  <PLP.PLP>  (452) 


>  <PLP.ligand.clash>  (452) 


>  <PLP.ligand.torsion>  (452) 


>  <PLP.part.buried>  (452) 


>  <PLP.part.hbond>  (452) 


>  <PLP.part.metal>  (452) 


>  <PLP.part.nonpolar>  (452) 


>  <PLP.part.repulsive>  (452) 


>  <RMSD>  (452) 
0.428070490903

>  <Torsion>  (452) 
152.444048788

>  <TorsionO>  (452) 
39.0580871276

>  <TorsionR>  (452) 
168.497864085

>  <Version>  (452) 


>  <product>  (452) 
46|Compound_23|Compounds_3D_F|sdf|9|dock1|1

>  <rmsd>  (452) 
-1

$$$$
974|750794_1404|Aromatic_primary_amines_F|sdf|194|dock3|1
     RDKit          3D

 14 14  0  0  0  0  0  0  0  0999 V2000
  -13.6355  -18.1936    9.4145 C   0  0  0  0  0  0  0  0  0  0  0  0
  -13.2544  -19.4497   10.1732 C   0  0  0  0  0  0  0  0  0  0  0  0
  -11.8731  -19.3506   10.5383 O   0  0  0  0  0  0  0  0  0  0  0  0
  -11.6148  -18.5085   11.5823 C   0  0  0  0  0  0  0  0  0  0  0  0
  -12.3947  -18.2810   12.5004 O   0  0  0  0  0  0  0  0  0  0  0  0
  -10.3031  -17.8985   11.4902 C   0  0  0  0  0  0  0  0  0  0  0  0
   -9.1673  -18.4974   10.9931 C   0  0  0  0  0  0  0  0  0  0  0  0
   -8.1448  -17.6055   11.0758 O   0  0  0  0  0  0  0  0  0  0  0  0
   -8.7110  -16.4917   11.6237 C   0  0  0  0  0  0  0  0  0  0  0  0
   -9.9933  -16.6110   11.8915 N   0  0  0  0  0  0  0  0  0  0  0  0
   -7.9611  -15.3718   11.8549 N   0  0  0  0  0  0  0  0  0  0  0  0
   -8.5046  -14.1249   12.0676 C   0  0  0  0  0  0  0  0  0  0  0  0
   -9.6950  -13.8313   12.1035 O   0  0  0  0  0  0  0  0  0  0  0  0
   -7.4448  -13.0785   12.3021 C   0  0  0  0  0  0  0  0  0  0  0  0
  1  2  1  0
  2  3  1  0
  3  4  1  0
  4  5  2  0
  4  6  1  0
  6  7  2  0
  6 10  1  0
  7  8  1  0
  8  9  1  0
  9 10  2  0
  9 11  1  0
 11 12  1  0
 12 13  2  0
 12 14  1  0
M  END
>  <Gold.Gold.Protein.RotatedWaterAtoms>  (453) 


>  <Gold.Id.Protein>  (453) 


>  <Gold.PLP.Chemscore.CHOScore>  (453) 
0.0000

>  <Gold.PLP.Chemscore.Hbond>  (453) 
2.0000

>  <Gold.PLP.Chemscore.Internal.Correction>  (453) 
0.0053

>  <Gold.PLP.Chemscore.Metal>  (453) 
0.0000

>  <Gold.PLP.Fitness>  (453) 
36.8047

>  <Gold.PLP.PLP>  (453) 
-32.7996

>  <Gold.PLP.ligand.clash>  (453) 
0.0000

>  <Gold.PLP.ligand.torsion>  (453) 
1.0001

>  <Gold.PLP.part.buried>  (453) 
-6.5206

>  <Gold.PLP.part.hbond>  (453) 
-2.9156

>  <Gold.PLP.part.metal>  (453) 
0.0000

>  <Gold.PLP.part.nonpolar>  (453) 
-23.4080

>  <Gold.PLP.part.repulsive>  (453) 
0.3100

>  <Gold.Protein.RotatedAtoms>  (453) 


>  <Gold.Protein.RotatedTorsions>  (453) 


>  <Gold.Protein.RotatedWaterAtoms>  (453) 


>  <Gold.Version>  (453) 
5.3.0

>  <PLP.Chemscore.CHOScore>  (453) 


>  <PLP.Chemscore.Hbond>  (453) 


>  <PLP.Chemscore.Internal.Correction>  (453) 


>  <PLP.Chemscore.Metal>  (453) 


>  <PLP.Fitness>  (453) 


>  <PLP.PLP>  (453) 


>  <PLP.ligand.clash>  (453) 


>  <PLP.ligand.torsion>  (453) 


>  <PLP.part.buried>  (453) 


>  <PLP.part.hbond>  (453) 


>  <PLP.part.metal>  (453) 


>  <PLP.part.nonpolar>  (453) 


>  <PLP.part.repulsive>  (453) 


>  <RMSD>  (453) 
0.499949349045

>  <Torsion>  (453) 
159.973716791

>  <TorsionO>  (453) 
19.1052109979

>  <TorsionR>  (453) 
179.078927789

>  <Version>  (453) 


>  <product>  (453) 
46|Compound_23|Compounds_3D_F|sdf|9|dock1|1

>  <rmsd>  (453) 
-1

$$$$
1884|M3006_1781|Aromatic_primary_amines_F|sdf|361|dock3|1
     RDKit          3D

 31 34  0  0  0  0  0  0  0  0999 V2000
  -14.4210  -19.8971    8.7934 C   0  0  0  0  0  0  0  0  0  0  0  0
  -13.9762  -19.4927   10.1894 C   0  0  0  0  0  0  0  0  0  0  0  0
  -14.1356  -20.6409   11.1817 C   0  0  0  0  0  0  0  0  0  0  0  0
  -13.5197  -20.3070   12.5189 C   0  0  0  0  0  0  0  0  0  0  0  0
  -12.9307  -19.2724   12.7954 O   0  0  0  0  0  0  0  0  0  0  0  0
  -13.7110  -21.3451   13.3845 O   0  0  0  0  0  0  0  0  0  0  0  0
  -12.9425  -21.2698   14.5900 C   0  0  0  0  0  0  0  0  0  0  0  0
  -12.8849  -22.6189   15.2889 C   0  0  0  0  0  0  0  0  0  0  0  0
  -11.6552  -22.4172   16.1494 C   0  0  0  0  0  0  0  0  0  0  0  0
  -11.2420  -23.7410   16.7624 C   0  0  0  0  0  0  0  0  0  0  0  0
  -12.3024  -24.2223   17.5862 O   0  0  0  0  0  0  0  0  0  0  0  0
  -13.7888  -24.3384   16.9603 P   0  0  0  0  0  0  0  0  0  0  0  0
  -14.8775  -24.6795   17.9243 O   0  0  0  0  0  0  0  0  0  0  0  0
  -13.9839  -22.9641   16.1174 O   0  0  0  0  0  0  0  0  0  0  0  0
  -13.5991  -25.4435   15.8075 O   0  0  0  0  0  0  0  0  0  0  0  0
  -10.6922  -21.8161   15.2889 O   0  0  0  0  0  0  0  0  0  0  0  0
  -11.4338  -20.9664   14.3653 C   0  0  0  0  0  0  0  0  0  0  0  0
  -10.9052  -21.2017   13.0342 N   0  0  0  0  0  0  0  0  0  0  0  0
  -10.7814  -22.4114   12.4013 C   0  0  0  0  0  0  0  0  0  0  0  0
  -10.2640  -22.2918   11.1953 N   0  0  0  0  0  0  0  0  0  0  0  0
  -10.0274  -20.9476   11.0424 C   0  0  0  0  0  0  0  0  0  0  0  0
  -10.4203  -20.2487   12.1733 C   0  0  0  0  0  0  0  0  0  0  0  0
  -10.3338  -18.9216   12.3641 N   0  0  0  0  0  0  0  0  0  0  0  0
   -9.8057  -18.2730   11.3024 C   0  0  0  0  0  0  0  0  0  0  0  0
   -9.3808  -18.8370   10.1545 N   0  0  0  0  0  0  0  0  0  0  0  0
   -9.4895  -20.1691   10.0244 C   0  0  0  0  0  0  0  0  0  0  0  0
   -9.0330  -20.6622    8.8349 O   0  0  0  0  0  0  0  0  0  0  0  0
   -9.7222  -16.8901   11.4793 N   0  0  0  0  0  0  0  0  0  0  0  0
   -8.5796  -16.1798   11.7761 C   0  0  0  0  0  0  0  0  0  0  0  0
   -7.4445  -16.6221   11.9131 O   0  0  0  0  0  0  0  0  0  0  0  0
   -8.8524  -14.7024   11.8973 C   0  0  0  0  0  0  0  0  0  0  0  0
  1  2  1  0
  2  3  1  0
  3  4  1  0
  4  5  2  0
  4  6  1  0
  6  7  1  0
  7  8  1  0
  7 17  1  0
  8  9  1  0
  8 14  1  0
  9 10  1  0
  9 16  1  0
 10 11  1  0
 11 12  1  0
 12 13  2  0
 12 14  1  0
 12 15  1  0
 16 17  1  0
 17 18  1  0
 18 19  1  0
 18 22  1  0
 19 20  2  0
 20 21  1  0
 21 22  2  0
 21 26  1  0
 22 23  1  0
 23 24  2  0
 24 25  1  0
 24 28  1  0
 25 26  2  0
 26 27  1  0
 28 29  1  0
 29 30  2  0
 29 31  1  0
M  END
>  <Gold.Gold.Protein.RotatedWaterAtoms>  (454) 


>  <Gold.Id.Protein>  (454) 


>  <Gold.PLP.Chemscore.CHOScore>  (454) 
0.0000

>  <Gold.PLP.Chemscore.Hbond>  (454) 
1.2080

>  <Gold.PLP.Chemscore.Internal.Correction>  (454) 
0.1232

>  <Gold.PLP.Chemscore.Metal>  (454) 
0.0000

>  <Gold.PLP.Fitness>  (454) 
47.7145

>  <Gold.PLP.PLP>  (454) 
-46.0218

>  <Gold.PLP.ligand.clash>  (454) 
0.0000

>  <Gold.PLP.ligand.torsion>  (454) 
1.0272

>  <Gold.PLP.part.buried>  (454) 
-2.2958

>  <Gold.PLP.part.hbond>  (454) 
-4.0214

>  <Gold.PLP.part.metal>  (454) 
0.0000

>  <Gold.PLP.part.nonpolar>  (454) 
-41.4699

>  <Gold.PLP.part.repulsive>  (454) 
0.9524

>  <Gold.Protein.RotatedAtoms>  (454) 


>  <Gold.Protein.RotatedTorsions>  (454) 


>  <Gold.Protein.RotatedWaterAtoms>  (454) 


>  <Gold.Version>  (454) 
5.3.0

>  <PLP.Chemscore.CHOScore>  (454) 


>  <PLP.Chemscore.Hbond>  (454) 


>  <PLP.Chemscore.Internal.Correction>  (454) 


>  <PLP.Chemscore.Metal>  (454) 


>  <PLP.Fitness>  (454) 


>  <PLP.PLP>  (454) 


>  <PLP.ligand.clash>  (454) 


>  <PLP.ligand.torsion>  (454) 


>  <PLP.part.buried>  (454) 


>  <PLP.part.hbond>  (454) 


>  <PLP.part.metal>  (454) 


>  <PLP.part.nonpolar>  (454) 


>  <PLP.part.repulsive>  (454) 


>  <RMSD>  (454) 
0.291955871297

>  <Torsion>  (454) 
171.923704933

>  <TorsionO>  (454) 
6.03609353985

>  <TorsionR>  (454) 
177.959798473

>  <Version>  (454) 


>  <product>  (454) 
46|Compound_23|Compounds_3D_F|sdf|9|dock1|1

>  <rmsd>  (454) 
-1

$$$$
193|32168_281|Aromatic_primary_amines_F|sdf|39|dock6|1
     RDKit          3D

 23 25  0  0  0  0  0  0  0  0999 V2000
   -7.8439  -12.1461   11.8919 C   0  0  0  0  0  0  0  0  0  0  0  0
   -8.5691  -13.4472   11.6781 C   0  0  0  0  0  0  0  0  0  0  0  0
   -9.7886  -13.4981   11.5208 O   0  0  0  0  0  0  0  0  0  0  0  0
   -7.7264  -14.5390   11.7020 N   0  0  0  0  0  0  0  0  0  0  0  0
   -8.1889  -15.8197   11.5323 C   0  0  0  0  0  0  0  0  0  0  0  0
   -9.4747  -16.2039   11.8163 N   0  0  0  0  0  0  0  0  0  0  0  0
   -9.5964  -17.5375   11.5379 C   0  0  0  0  0  0  0  0  0  0  0  0
  -10.6643  -18.4283   11.6415 C   0  0  0  0  0  0  0  0  0  0  0  0
  -10.4051  -19.7586   11.2778 C   0  0  0  0  0  0  0  0  0  0  0  0
   -9.1530  -20.1507   10.7795 C   0  0  0  0  0  0  0  0  0  0  0  0
   -8.1017  -19.2294   10.6839 C   0  0  0  0  0  0  0  0  0  0  0  0
   -8.3349  -17.9032   11.0783 C   0  0  0  0  0  0  0  0  0  0  0  0
   -7.4773  -16.8281   11.0838 N   0  0  0  0  0  0  0  0  0  0  0  0
   -8.8530  -21.7658   10.2429 Cl  0  0  0  0  0  0  0  0  0  0  0  0
  -11.4669  -20.6323   11.3734 O   0  0  0  0  0  0  0  0  0  0  0  0
  -12.5262  -20.4408   10.5053 C   0  0  0  0  0  0  0  0  0  0  0  0
  -13.3188  -19.2846   10.5304 C   0  0  0  0  0  0  0  0  0  0  0  0
  -14.3665  -19.1344    9.6224 C   0  0  0  0  0  0  0  0  0  0  0  0
  -14.6219  -20.1279    8.6796 C   0  0  0  0  0  0  0  0  0  0  0  0
  -13.8238  -21.2756    8.6345 C   0  0  0  0  0  0  0  0  0  0  0  0
  -12.7674  -21.4342    9.5416 C   0  0  0  0  0  0  0  0  0  0  0  0
  -11.7588  -22.8458    9.4996 Cl  0  0  0  0  0  0  0  0  0  0  0  0
  -14.1988  -22.4584    7.4296 Cl  0  0  0  0  0  0  0  0  0  0  0  0
  1  2  1  0
  2  3  2  0
  2  4  1  0
  4  5  1  0
  5  6  1  0
  5 13  2  0
  6  7  1  0
  7  8  2  0
  7 12  1  0
  8  9  1  0
  9 10  2  0
  9 15  1  0
 10 11  1  0
 10 14  1  0
 11 12  2  0
 12 13  1  0
 15 16  1  0
 16 17  2  0
 16 21  1  0
 17 18  1  0
 18 19  2  0
 19 20  1  0
 20 21  2  0
 20 23  1  0
 21 22  1  0
M  END
>  <Gold.Gold.Protein.RotatedWaterAtoms>  (455) 


>  <Gold.Id.Protein>  (455) 


>  <Gold.PLP.Chemscore.CHOScore>  (455) 
0.0000

>  <Gold.PLP.Chemscore.Hbond>  (455) 
1.0000

>  <Gold.PLP.Chemscore.Internal.Correction>  (455) 
0.0086

>  <Gold.PLP.Chemscore.Metal>  (455) 
0.0000

>  <Gold.PLP.Fitness>  (455) 
50.7139

>  <Gold.PLP.PLP>  (455) 
-48.1706

>  <Gold.PLP.ligand.clash>  (455) 
0.0000

>  <Gold.PLP.ligand.torsion>  (455) 
0.2327

>  <Gold.PLP.part.buried>  (455) 
-6.5205

>  <Gold.PLP.part.hbond>  (455) 
-2.0000

>  <Gold.PLP.part.metal>  (455) 
0.0000

>  <Gold.PLP.part.nonpolar>  (455) 
-39.3857

>  <Gold.PLP.part.repulsive>  (455) 
0.3298

>  <Gold.Protein.RotatedAtoms>  (455) 


>  <Gold.Protein.RotatedTorsions>  (455) 


>  <Gold.Protein.RotatedWaterAtoms>  (455) 


>  <Gold.Version>  (455) 
5.3.0

>  <PLP.Chemscore.CHOScore>  (455) 


>  <PLP.Chemscore.Hbond>  (455) 


>  <PLP.Chemscore.Internal.Correction>  (455) 


>  <PLP.Chemscore.Metal>  (455) 


>  <PLP.Fitness>  (455) 


>  <PLP.PLP>  (455) 


>  <PLP.ligand.clash>  (455) 


>  <PLP.ligand.torsion>  (455) 


>  <PLP.part.buried>  (455) 


>  <PLP.part.hbond>  (455) 


>  <PLP.part.metal>  (455) 


>  <PLP.part.nonpolar>  (455) 


>  <PLP.part.repulsive>  (455) 


>  <RMSD>  (455) 
0.439733510035

>  <Torsion>  (455) 
177.672185574

>  <TorsionO>  (455) 
4.31728583372

>  <TorsionR>  (455) 
173.35489974

>  <Version>  (455) 


>  <product>  (455) 
46|Compound_23|Compounds_3D_F|sdf|9|dock1|1

>  <rmsd>  (455) 
-1

$$$$
14|Compound_8|Compounds_3D_F|sdf|4|dock4|1
     RDKit          3D

  8  7  0  0  0  0  0  0  0  0999 V2000
   -9.9675  -14.4416   12.6229 O   0  0  0  0  0  0  0  0  0  0  0  0
   -9.0978  -13.4328   12.1060 C   0  0  0  0  0  0  0  0  0  0  0  0
   -7.6440  -13.8781   12.2720 C   0  0  0  0  0  0  0  0  0  0  0  0
   -7.3233  -14.8850   11.2568 N   0  0  0  0  0  0  0  0  0  0  0  0
   -6.8140  -16.0772   11.6266 C   0  0  0  0  0  0  0  0  0  0  0  0
   -6.6226  -16.3156   12.7997 O   0  0  0  0  0  0  0  0  0  0  0  0
   -6.4701  -17.1550   10.5390 B   0  0  0  0  0  0  0  0  0  0  0  0
   -6.7184  -12.6714   12.1041 C   0  0  0  0  0  0  0  0  0  0  0  0
  1  2  1  0
  2  3  1  0
  3  4  1  0
  3  8  1  0
  4  5  1  0
  5  6  2  0
  5  7  1  0
M  END
>  <Gold.Gold.Protein.RotatedWaterAtoms>  (456) 


>  <Gold.Id.Protein>  (456) 


>  <Gold.PLP.Chemscore.CHOScore>  (456) 
0.0000

>  <Gold.PLP.Chemscore.Hbond>  (456) 
2.0000

>  <Gold.PLP.Chemscore.Internal.Correction>  (456) 
0.0000

>  <Gold.PLP.Chemscore.Metal>  (456) 
0.0000

>  <Gold.PLP.Fitness>  (456) 
28.4638

>  <Gold.PLP.PLP>  (456) 
-22.7899

>  <Gold.PLP.ligand.clash>  (456) 
0.0000

>  <Gold.PLP.ligand.torsion>  (456) 
0.1631

>  <Gold.PLP.part.buried>  (456) 
-5.0706

>  <Gold.PLP.part.hbond>  (456) 
-3.3417

>  <Gold.PLP.part.metal>  (456) 
0.0000

>  <Gold.PLP.part.nonpolar>  (456) 
-14.5829

>  <Gold.PLP.part.repulsive>  (456) 
0.1194

>  <Gold.Protein.RotatedAtoms>  (456) 


>  <Gold.Protein.RotatedTorsions>  (456) 


>  <Gold.Protein.RotatedWaterAtoms>  (456) 


>  <Gold.Version>  (456) 
5.3.0

>  <PLP.Chemscore.CHOScore>  (456) 


>  <PLP.Chemscore.Hbond>  (456) 


>  <PLP.Chemscore.Internal.Correction>  (456) 


>  <PLP.Chemscore.Metal>  (456) 


>  <PLP.Fitness>  (456) 


>  <PLP.PLP>  (456) 


>  <PLP.ligand.clash>  (456) 


>  <PLP.ligand.torsion>  (456) 


>  <PLP.part.buried>  (456) 


>  <PLP.part.hbond>  (456) 


>  <PLP.part.metal>  (456) 


>  <PLP.part.nonpolar>  (456) 


>  <PLP.part.repulsive>  (456) 


>  <Version>  (456) 


$$$$
94|664022_40|Aromatic_carboxylic_acids_F|sdf|24|dock1|1
     RDKit          3D

 12 12  0  0  0  0  0  0  0  0999 V2000
   -8.2596  -17.1212   11.4595 C   0  0  0  0  0  0  0  0  0  0  0  0
   -7.6366  -15.8367   11.6688 N   0  0  0  0  0  0  0  0  0  0  0  0
   -8.3409  -14.6553   11.5719 C   0  0  0  0  0  0  0  0  0  0  0  0
   -9.5296  -14.5547   11.2978 O   0  0  0  0  0  0  0  0  0  0  0  0
   -7.5420  -13.4431   11.8503 C   0  0  0  0  0  0  0  0  0  0  0  0
   -8.1627  -12.1983   11.6738 C   0  0  0  0  0  0  0  0  0  0  0  0
   -7.4390  -11.0301   11.9055 C   0  0  0  0  0  0  0  0  0  0  0  0
   -6.1069  -11.0910   12.3103 C   0  0  0  0  0  0  0  0  0  0  0  0
   -5.4897  -12.3324   12.4853 C   0  0  0  0  0  0  0  0  0  0  0  0
   -6.2035  -13.5136   12.2549 C   0  0  0  0  0  0  0  0  0  0  0  0
   -5.3062  -15.1564   12.5638 Br  0  0  0  0  0  0  0  0  0  0  0  0
   -8.1960   -9.5005   11.6887 Cl  0  0  0  0  0  0  0  0  0  0  0  0
  1  2  1  0
  2  3  1  0
  3  4  2  0
  3  5  1  0
  5  6  2  0
  5 10  1  0
  6  7  1  0
  7  8  2  0
  7 12  1  0
  8  9  1  0
  9 10  2  0
 10 11  1  0
M  END
>  <Gold.Gold.Protein.RotatedWaterAtoms>  (457) 


>  <Gold.Id.Protein>  (457) 


>  <Gold.PLP.Chemscore.CHOScore>  (457) 
0.0000

>  <Gold.PLP.Chemscore.Hbond>  (457) 
0.4160

>  <Gold.PLP.Chemscore.Internal.Correction>  (457) 
0.0004

>  <Gold.PLP.Chemscore.Metal>  (457) 
0.0000

>  <Gold.PLP.Fitness>  (457) 
48.9046

>  <Gold.PLP.PLP>  (457) 
-47.6744

>  <Gold.PLP.ligand.clash>  (457) 
0.0000

>  <Gold.PLP.ligand.torsion>  (457) 
0.0091

>  <Gold.PLP.part.buried>  (457) 
-7.3578

>  <Gold.PLP.part.hbond>  (457) 
-0.5127

>  <Gold.PLP.part.metal>  (457) 
0.0000

>  <Gold.PLP.part.nonpolar>  (457) 
-40.3098

>  <Gold.PLP.part.repulsive>  (457) 
0.1684

>  <Gold.Protein.RotatedAtoms>  (457) 


>  <Gold.Protein.RotatedTorsions>  (457) 


>  <Gold.Protein.RotatedWaterAtoms>  (457) 


>  <Gold.Version>  (457) 
5.3.0

>  <PLP.Chemscore.CHOScore>  (457) 


>  <PLP.Chemscore.Hbond>  (457) 


>  <PLP.Chemscore.Internal.Correction>  (457) 


>  <PLP.Chemscore.Metal>  (457) 


>  <PLP.Fitness>  (457) 


>  <PLP.PLP>  (457) 


>  <PLP.ligand.clash>  (457) 


>  <PLP.ligand.torsion>  (457) 


>  <PLP.part.buried>  (457) 


>  <PLP.part.hbond>  (457) 


>  <PLP.part.metal>  (457) 


>  <PLP.part.nonpolar>  (457) 


>  <PLP.part.repulsive>  (457) 


>  <RMSD>  (457) 
0.30972197429

>  <Torsion>  (457) 
172.929186758

>  <TorsionO>  (457) 
24.4968065243

>  <TorsionR>  (457) 
162.574006718

>  <Version>  (457) 


>  <product>  (457) 
14|Compound_8|Compounds_3D_F|sdf|4|dock4|1

>  <rmsd>  (457) 
-1

$$$$
110|565385_49|Aromatic_carboxylic_acids_F|sdf|29|dock1|1
     RDKit          3D

 13 13  0  0  0  0  0  0  0  0999 V2000
  -10.1118  -17.9021   11.6320 C   0  0  0  0  0  0  0  0  0  0  0  0
   -9.7537  -16.5043   11.6546 N   0  0  0  0  0  0  0  0  0  0  0  0
   -8.4330  -16.1187   11.7930 C   0  0  0  0  0  0  0  0  0  0  0  0
   -7.5159  -16.9298   11.9008 O   0  0  0  0  0  0  0  0  0  0  0  0
   -8.1234  -14.6552   11.8105 C   0  0  0  0  0  0  0  0  0  0  0  0
   -9.0636  -13.6551   11.5375 C   0  0  0  0  0  0  0  0  0  0  0  0
   -8.6966  -12.3009   11.5726 C   0  0  0  0  0  0  0  0  0  0  0  0
   -7.3879  -11.9195   11.8809 C   0  0  0  0  0  0  0  0  0  0  0  0
   -6.4486  -12.9235   12.1551 C   0  0  0  0  0  0  0  0  0  0  0  0
   -6.8098  -14.2750   12.1207 C   0  0  0  0  0  0  0  0  0  0  0  0
   -4.6444  -12.5025   12.5849 Br  0  0  0  0  0  0  0  0  0  0  0  0
   -6.9476  -10.6242   11.9372 O   0  0  0  0  0  0  0  0  0  0  0  0
   -7.9020   -9.5910   11.7256 C   0  0  0  0  0  0  0  0  0  0  0  0
  1  2  1  0
  2  3  1  0
  3  4  2  0
  3  5  1  0
  5  6  2  0
  5 10  1  0
  6  7  1  0
  7  8  2  0
  8  9  1  0
  8 12  1  0
  9 10  2  0
  9 11  1  0
 12 13  1  0
M  END
>  <Gold.Gold.Protein.RotatedWaterAtoms>  (458) 


>  <Gold.Id.Protein>  (458) 


>  <Gold.PLP.Chemscore.CHOScore>  (458) 
0.0000

>  <Gold.PLP.Chemscore.Hbond>  (458) 
1.0000

>  <Gold.PLP.Chemscore.Internal.Correction>  (458) 
0.0000

>  <Gold.PLP.Chemscore.Metal>  (458) 
0.0000

>  <Gold.PLP.Fitness>  (458) 
43.9775

>  <Gold.PLP.PLP>  (458) 
-41.0517

>  <Gold.PLP.ligand.clash>  (458) 
0.0000

>  <Gold.PLP.ligand.torsion>  (458) 
0.0371

>  <Gold.PLP.part.buried>  (458) 
-3.7367

>  <Gold.PLP.part.hbond>  (458) 
-1.0000

>  <Gold.PLP.part.metal>  (458) 
0.0000

>  <Gold.PLP.part.nonpolar>  (458) 
-36.7483

>  <Gold.PLP.part.repulsive>  (458) 
0.4054

>  <Gold.Protein.RotatedAtoms>  (458) 


>  <Gold.Protein.RotatedTorsions>  (458) 


>  <Gold.Protein.RotatedWaterAtoms>  (458) 


>  <Gold.Version>  (458) 
5.3.0

>  <PLP.Chemscore.CHOScore>  (458) 


>  <PLP.Chemscore.Hbond>  (458) 


>  <PLP.Chemscore.Internal.Correction>  (458) 


>  <PLP.Chemscore.Metal>  (458) 


>  <PLP.Fitness>  (458) 


>  <PLP.PLP>  (458) 


>  <PLP.ligand.clash>  (458) 


>  <PLP.ligand.torsion>  (458) 


>  <PLP.part.buried>  (458) 


>  <PLP.part.hbond>  (458) 


>  <PLP.part.metal>  (458) 


>  <PLP.part.nonpolar>  (458) 


>  <PLP.part.repulsive>  (458) 


>  <RMSD>  (458) 
0.319376411377

>  <Torsion>  (458) 
169.460450784

>  <TorsionO>  (458) 
9.7963905484

>  <TorsionR>  (458) 
179.256841332

>  <Version>  (458) 


>  <product>  (458) 
14|Compound_8|Compounds_3D_F|sdf|4|dock4|1

>  <rmsd>  (458) 
-1

$$$$
128|137677_56|Aromatic_carboxylic_acids_F|sdf|33|dock1|1
     RDKit          3D

 11 11  0  0  0  0  0  0  0  0999 V2000
   -8.6116  -16.1544   11.8887 C   0  0  0  0  0  0  0  0  0  0  0  0
   -7.9978  -14.8484   11.9215 N   0  0  0  0  0  0  0  0  0  0  0  0
   -8.7778  -13.7008   11.8756 C   0  0  0  0  0  0  0  0  0  0  0  0
  -10.0002  -13.7896   11.8139 O   0  0  0  0  0  0  0  0  0  0  0  0
   -8.0808  -12.3609   11.9017 C   0  0  0  0  0  0  0  0  0  0  0  0
   -8.7916  -11.1851   11.5813 C   0  0  0  0  0  0  0  0  0  0  0  0
   -8.1781   -9.9267   11.5989 C   0  0  0  0  0  0  0  0  0  0  0  0
   -6.8391   -9.8089   11.9369 C   0  0  0  0  0  0  0  0  0  0  0  0
   -6.1124  -10.9502   12.2575 C   0  0  0  0  0  0  0  0  0  0  0  0
   -6.7171  -12.2196   12.2428 C   0  0  0  0  0  0  0  0  0  0  0  0
   -5.5419  -13.6455   12.7121 Br  0  0  0  0  0  0  0  0  0  0  0  0
  1  2  1  0
  2  3  1  0
  3  4  2  0
  3  5  1  0
  5  6  2  0
  5 10  1  0
  6  7  1  0
  7  8  2  0
  8  9  1  0
  9 10  2  0
 10 11  1  0
M  END
>  <Gold.Gold.Protein.RotatedWaterAtoms>  (459) 


>  <Gold.Id.Protein>  (459) 


>  <Gold.PLP.Chemscore.CHOScore>  (459) 
0.0000

>  <Gold.PLP.Chemscore.Hbond>  (459) 
1.0000

>  <Gold.PLP.Chemscore.Internal.Correction>  (459) 
0.0000

>  <Gold.PLP.Chemscore.Metal>  (459) 
0.0000

>  <Gold.PLP.Fitness>  (459) 
45.2899

>  <Gold.PLP.PLP>  (459) 
-42.4444

>  <Gold.PLP.ligand.clash>  (459) 
0.0000

>  <Gold.PLP.ligand.torsion>  (459) 
0.0772

>  <Gold.PLP.part.buried>  (459) 
-6.4690

>  <Gold.PLP.part.hbond>  (459) 
-0.6863

>  <Gold.PLP.part.metal>  (459) 
0.0000

>  <Gold.PLP.part.nonpolar>  (459) 
-34.8280

>  <Gold.PLP.part.repulsive>  (459) 
0.1963

>  <Gold.Protein.RotatedAtoms>  (459) 


>  <Gold.Protein.RotatedTorsions>  (459) 


>  <Gold.Protein.RotatedWaterAtoms>  (459) 


>  <Gold.Version>  (459) 
5.3.0

>  <PLP.Chemscore.CHOScore>  (459) 


>  <PLP.Chemscore.Hbond>  (459) 


>  <PLP.Chemscore.Internal.Correction>  (459) 


>  <PLP.Chemscore.Metal>  (459) 


>  <PLP.Fitness>  (459) 


>  <PLP.PLP>  (459) 


>  <PLP.ligand.clash>  (459) 


>  <PLP.ligand.torsion>  (459) 


>  <PLP.part.buried>  (459) 


>  <PLP.part.hbond>  (459) 


>  <PLP.part.metal>  (459) 


>  <PLP.part.nonpolar>  (459) 


>  <PLP.part.repulsive>  (459) 


>  <RMSD>  (459) 
0.428070490903

>  <Torsion>  (459) 
152.444048788

>  <TorsionO>  (459) 
39.0580871276

>  <TorsionR>  (459) 
168.497864085

>  <Version>  (459) 


>  <product>  (459) 
14|Compound_8|Compounds_3D_F|sdf|4|dock4|1

>  <rmsd>  (459) 
-1

$$$$
974|750794_1404|Aromatic_primary_amines_F|sdf|194|dock3|1
     RDKit          3D

 14 14  0  0  0  0  0  0  0  0999 V2000
  -13.6355  -18.1936    9.4145 C   0  0  0  0  0  0  0  0  0  0  0  0
  -13.2544  -19.4497   10.1732 C   0  0  0  0  0  0  0  0  0  0  0  0
  -11.8731  -19.3506   10.5383 O   0  0  0  0  0  0  0  0  0  0  0  0
  -11.6148  -18.5085   11.5823 C   0  0  0  0  0  0  0  0  0  0  0  0
  -12.3947  -18.2810   12.5004 O   0  0  0  0  0  0  0  0  0  0  0  0
  -10.3031  -17.8985   11.4902 C   0  0  0  0  0  0  0  0  0  0  0  0
   -9.1673  -18.4974   10.9931 C   0  0  0  0  0  0  0  0  0  0  0  0
   -8.1448  -17.6055   11.0758 O   0  0  0  0  0  0  0  0  0  0  0  0
   -8.7110  -16.4917   11.6237 C   0  0  0  0  0  0  0  0  0  0  0  0
   -9.9933  -16.6110   11.8915 N   0  0  0  0  0  0  0  0  0  0  0  0
   -7.9611  -15.3718   11.8549 N   0  0  0  0  0  0  0  0  0  0  0  0
   -8.5046  -14.1249   12.0676 C   0  0  0  0  0  0  0  0  0  0  0  0
   -9.6950  -13.8313   12.1035 O   0  0  0  0  0  0  0  0  0  0  0  0
   -7.4448  -13.0785   12.3021 C   0  0  0  0  0  0  0  0  0  0  0  0
  1  2  1  0
  2  3  1  0
  3  4  1  0
  4  5  2  0
  4  6  1  0
  6  7  2  0
  6 10  1  0
  7  8  1  0
  8  9  1  0
  9 10  2  0
  9 11  1  0
 11 12  1  0
 12 13  2  0
 12 14  1  0
M  END
>  <Gold.Gold.Protein.RotatedWaterAtoms>  (460) 


>  <Gold.Id.Protein>  (460) 


>  <Gold.PLP.Chemscore.CHOScore>  (460) 
0.0000

>  <Gold.PLP.Chemscore.Hbond>  (460) 
2.0000

>  <Gold.PLP.Chemscore.Internal.Correction>  (460) 
0.0053

>  <Gold.PLP.Chemscore.Metal>  (460) 
0.0000

>  <Gold.PLP.Fitness>  (460) 
36.8047

>  <Gold.PLP.PLP>  (460) 
-32.7996

>  <Gold.PLP.ligand.clash>  (460) 
0.0000

>  <Gold.PLP.ligand.torsion>  (460) 
1.0001

>  <Gold.PLP.part.buried>  (460) 
-6.5206

>  <Gold.PLP.part.hbond>  (460) 
-2.9156

>  <Gold.PLP.part.metal>  (460) 
0.0000

>  <Gold.PLP.part.nonpolar>  (460) 
-23.4080

>  <Gold.PLP.part.repulsive>  (460) 
0.3100

>  <Gold.Protein.RotatedAtoms>  (460) 


>  <Gold.Protein.RotatedTorsions>  (460) 


>  <Gold.Protein.RotatedWaterAtoms>  (460) 


>  <Gold.Version>  (460) 
5.3.0

>  <PLP.Chemscore.CHOScore>  (460) 


>  <PLP.Chemscore.Hbond>  (460) 


>  <PLP.Chemscore.Internal.Correction>  (460) 


>  <PLP.Chemscore.Metal>  (460) 


>  <PLP.Fitness>  (460) 


>  <PLP.PLP>  (460) 


>  <PLP.ligand.clash>  (460) 


>  <PLP.ligand.torsion>  (460) 


>  <PLP.part.buried>  (460) 


>  <PLP.part.hbond>  (460) 


>  <PLP.part.metal>  (460) 


>  <PLP.part.nonpolar>  (460) 


>  <PLP.part.repulsive>  (460) 


>  <RMSD>  (460) 
0.499949349045

>  <Torsion>  (460) 
159.973716791

>  <TorsionO>  (460) 
19.1052109979

>  <TorsionR>  (460) 
179.078927789

>  <Version>  (460) 


>  <product>  (460) 
14|Compound_8|Compounds_3D_F|sdf|4|dock4|1

>  <rmsd>  (460) 
-1

$$$$
1884|M3006_1781|Aromatic_primary_amines_F|sdf|361|dock3|1
     RDKit          3D

 31 34  0  0  0  0  0  0  0  0999 V2000
  -14.4210  -19.8971    8.7934 C   0  0  0  0  0  0  0  0  0  0  0  0
  -13.9762  -19.4927   10.1894 C   0  0  0  0  0  0  0  0  0  0  0  0
  -14.1356  -20.6409   11.1817 C   0  0  0  0  0  0  0  0  0  0  0  0
  -13.5197  -20.3070   12.5189 C   0  0  0  0  0  0  0  0  0  0  0  0
  -12.9307  -19.2724   12.7954 O   0  0  0  0  0  0  0  0  0  0  0  0
  -13.7110  -21.3451   13.3845 O   0  0  0  0  0  0  0  0  0  0  0  0
  -12.9425  -21.2698   14.5900 C   0  0  0  0  0  0  0  0  0  0  0  0
  -12.8849  -22.6189   15.2889 C   0  0  0  0  0  0  0  0  0  0  0  0
  -11.6552  -22.4172   16.1494 C   0  0  0  0  0  0  0  0  0  0  0  0
  -11.2420  -23.7410   16.7624 C   0  0  0  0  0  0  0  0  0  0  0  0
  -12.3024  -24.2223   17.5862 O   0  0  0  0  0  0  0  0  0  0  0  0
  -13.7888  -24.3384   16.9603 P   0  0  0  0  0  0  0  0  0  0  0  0
  -14.8775  -24.6795   17.9243 O   0  0  0  0  0  0  0  0  0  0  0  0
  -13.9839  -22.9641   16.1174 O   0  0  0  0  0  0  0  0  0  0  0  0
  -13.5991  -25.4435   15.8075 O   0  0  0  0  0  0  0  0  0  0  0  0
  -10.6922  -21.8161   15.2889 O   0  0  0  0  0  0  0  0  0  0  0  0
  -11.4338  -20.9664   14.3653 C   0  0  0  0  0  0  0  0  0  0  0  0
  -10.9052  -21.2017   13.0342 N   0  0  0  0  0  0  0  0  0  0  0  0
  -10.7814  -22.4114   12.4013 C   0  0  0  0  0  0  0  0  0  0  0  0
  -10.2640  -22.2918   11.1953 N   0  0  0  0  0  0  0  0  0  0  0  0
  -10.0274  -20.9476   11.0424 C   0  0  0  0  0  0  0  0  0  0  0  0
  -10.4203  -20.2487   12.1733 C   0  0  0  0  0  0  0  0  0  0  0  0
  -10.3338  -18.9216   12.3641 N   0  0  0  0  0  0  0  0  0  0  0  0
   -9.8057  -18.2730   11.3024 C   0  0  0  0  0  0  0  0  0  0  0  0
   -9.3808  -18.8370   10.1545 N   0  0  0  0  0  0  0  0  0  0  0  0
   -9.4895  -20.1691   10.0244 C   0  0  0  0  0  0  0  0  0  0  0  0
   -9.0330  -20.6622    8.8349 O   0  0  0  0  0  0  0  0  0  0  0  0
   -9.7222  -16.8901   11.4793 N   0  0  0  0  0  0  0  0  0  0  0  0
   -8.5796  -16.1798   11.7761 C   0  0  0  0  0  0  0  0  0  0  0  0
   -7.4445  -16.6221   11.9131 O   0  0  0  0  0  0  0  0  0  0  0  0
   -8.8524  -14.7024   11.8973 C   0  0  0  0  0  0  0  0  0  0  0  0
  1  2  1  0
  2  3  1  0
  3  4  1  0
  4  5  2  0
  4  6  1  0
  6  7  1  0
  7  8  1  0
  7 17  1  0
  8  9  1  0
  8 14  1  0
  9 10  1  0
  9 16  1  0
 10 11  1  0
 11 12  1  0
 12 13  2  0
 12 14  1  0
 12 15  1  0
 16 17  1  0
 17 18  1  0
 18 19  1  0
 18 22  1  0
 19 20  2  0
 20 21  1  0
 21 22  2  0
 21 26  1  0
 22 23  1  0
 23 24  2  0
 24 25  1  0
 24 28  1  0
 25 26  2  0
 26 27  1  0
 28 29  1  0
 29 30  2  0
 29 31  1  0
M  END
>  <Gold.Gold.Protein.RotatedWaterAtoms>  (461) 


>  <Gold.Id.Protein>  (461) 


>  <Gold.PLP.Chemscore.CHOScore>  (461) 
0.0000

>  <Gold.PLP.Chemscore.Hbond>  (461) 
1.2080

>  <Gold.PLP.Chemscore.Internal.Correction>  (461) 
0.1232

>  <Gold.PLP.Chemscore.Metal>  (461) 
0.0000

>  <Gold.PLP.Fitness>  (461) 
47.7145

>  <Gold.PLP.PLP>  (461) 
-46.0218

>  <Gold.PLP.ligand.clash>  (461) 
0.0000

>  <Gold.PLP.ligand.torsion>  (461) 
1.0272

>  <Gold.PLP.part.buried>  (461) 
-2.2958

>  <Gold.PLP.part.hbond>  (461) 
-4.0214

>  <Gold.PLP.part.metal>  (461) 
0.0000

>  <Gold.PLP.part.nonpolar>  (461) 
-41.4699

>  <Gold.PLP.part.repulsive>  (461) 
0.9524

>  <Gold.Protein.RotatedAtoms>  (461) 


>  <Gold.Protein.RotatedTorsions>  (461) 


>  <Gold.Protein.RotatedWaterAtoms>  (461) 


>  <Gold.Version>  (461) 
5.3.0

>  <PLP.Chemscore.CHOScore>  (461) 


>  <PLP.Chemscore.Hbond>  (461) 


>  <PLP.Chemscore.Internal.Correction>  (461) 


>  <PLP.Chemscore.Metal>  (461) 


>  <PLP.Fitness>  (461) 


>  <PLP.PLP>  (461) 


>  <PLP.ligand.clash>  (461) 


>  <PLP.ligand.torsion>  (461) 


>  <PLP.part.buried>  (461) 


>  <PLP.part.hbond>  (461) 


>  <PLP.part.metal>  (461) 


>  <PLP.part.nonpolar>  (461) 


>  <PLP.part.repulsive>  (461) 


>  <RMSD>  (461) 
0.291955871297

>  <Torsion>  (461) 
171.923704933

>  <TorsionO>  (461) 
6.03609353985

>  <TorsionR>  (461) 
177.959798473

>  <Version>  (461) 


>  <product>  (461) 
14|Compound_8|Compounds_3D_F|sdf|4|dock4|1

>  <rmsd>  (461) 
-1

$$$$
193|32168_281|Aromatic_primary_amines_F|sdf|39|dock6|1
     RDKit          3D

 23 25  0  0  0  0  0  0  0  0999 V2000
   -7.8439  -12.1461   11.8919 C   0  0  0  0  0  0  0  0  0  0  0  0
   -8.5691  -13.4472   11.6781 C   0  0  0  0  0  0  0  0  0  0  0  0
   -9.7886  -13.4981   11.5208 O   0  0  0  0  0  0  0  0  0  0  0  0
   -7.7264  -14.5390   11.7020 N   0  0  0  0  0  0  0  0  0  0  0  0
   -8.1889  -15.8197   11.5323 C   0  0  0  0  0  0  0  0  0  0  0  0
   -9.4747  -16.2039   11.8163 N   0  0  0  0  0  0  0  0  0  0  0  0
   -9.5964  -17.5375   11.5379 C   0  0  0  0  0  0  0  0  0  0  0  0
  -10.6643  -18.4283   11.6415 C   0  0  0  0  0  0  0  0  0  0  0  0
  -10.4051  -19.7586   11.2778 C   0  0  0  0  0  0  0  0  0  0  0  0
   -9.1530  -20.1507   10.7795 C   0  0  0  0  0  0  0  0  0  0  0  0
   -8.1017  -19.2294   10.6839 C   0  0  0  0  0  0  0  0  0  0  0  0
   -8.3349  -17.9032   11.0783 C   0  0  0  0  0  0  0  0  0  0  0  0
   -7.4773  -16.8281   11.0838 N   0  0  0  0  0  0  0  0  0  0  0  0
   -8.8530  -21.7658   10.2429 Cl  0  0  0  0  0  0  0  0  0  0  0  0
  -11.4669  -20.6323   11.3734 O   0  0  0  0  0  0  0  0  0  0  0  0
  -12.5262  -20.4408   10.5053 C   0  0  0  0  0  0  0  0  0  0  0  0
  -13.3188  -19.2846   10.5304 C   0  0  0  0  0  0  0  0  0  0  0  0
  -14.3665  -19.1344    9.6224 C   0  0  0  0  0  0  0  0  0  0  0  0
  -14.6219  -20.1279    8.6796 C   0  0  0  0  0  0  0  0  0  0  0  0
  -13.8238  -21.2756    8.6345 C   0  0  0  0  0  0  0  0  0  0  0  0
  -12.7674  -21.4342    9.5416 C   0  0  0  0  0  0  0  0  0  0  0  0
  -11.7588  -22.8458    9.4996 Cl  0  0  0  0  0  0  0  0  0  0  0  0
  -14.1988  -22.4584    7.4296 Cl  0  0  0  0  0  0  0  0  0  0  0  0
  1  2  1  0
  2  3  2  0
  2  4  1  0
  4  5  1  0
  5  6  1  0
  5 13  2  0
  6  7  1  0
  7  8  2  0
  7 12  1  0
  8  9  1  0
  9 10  2  0
  9 15  1  0
 10 11  1  0
 10 14  1  0
 11 12  2  0
 12 13  1  0
 15 16  1  0
 16 17  2  0
 16 21  1  0
 17 18  1  0
 18 19  2  0
 19 20  1  0
 20 21  2  0
 20 23  1  0
 21 22  1  0
M  END
>  <Gold.Gold.Protein.RotatedWaterAtoms>  (462) 


>  <Gold.Id.Protein>  (462) 


>  <Gold.PLP.Chemscore.CHOScore>  (462) 
0.0000

>  <Gold.PLP.Chemscore.Hbond>  (462) 
1.0000

>  <Gold.PLP.Chemscore.Internal.Correction>  (462) 
0.0086

>  <Gold.PLP.Chemscore.Metal>  (462) 
0.0000

>  <Gold.PLP.Fitness>  (462) 
50.7139

>  <Gold.PLP.PLP>  (462) 
-48.1706

>  <Gold.PLP.ligand.clash>  (462) 
0.0000

>  <Gold.PLP.ligand.torsion>  (462) 
0.2327

>  <Gold.PLP.part.buried>  (462) 
-6.5205

>  <Gold.PLP.part.hbond>  (462) 
-2.0000

>  <Gold.PLP.part.metal>  (462) 
0.0000

>  <Gold.PLP.part.nonpolar>  (462) 
-39.3857

>  <Gold.PLP.part.repulsive>  (462) 
0.3298

>  <Gold.Protein.RotatedAtoms>  (462) 


>  <Gold.Protein.RotatedTorsions>  (462) 


>  <Gold.Protein.RotatedWaterAtoms>  (462) 


>  <Gold.Version>  (462) 
5.3.0

>  <PLP.Chemscore.CHOScore>  (462) 


>  <PLP.Chemscore.Hbond>  (462) 


>  <PLP.Chemscore.Internal.Correction>  (462) 


>  <PLP.Chemscore.Metal>  (462) 


>  <PLP.Fitness>  (462) 


>  <PLP.PLP>  (462) 


>  <PLP.ligand.clash>  (462) 


>  <PLP.ligand.torsion>  (462) 


>  <PLP.part.buried>  (462) 


>  <PLP.part.hbond>  (462) 


>  <PLP.part.metal>  (462) 


>  <PLP.part.nonpolar>  (462) 


>  <PLP.part.repulsive>  (462) 


>  <RMSD>  (462) 
0.439733510035

>  <Torsion>  (462) 
177.672185574

>  <TorsionO>  (462) 
4.31728583372

>  <TorsionR>  (462) 
173.35489974

>  <Version>  (462) 


>  <product>  (462) 
14|Compound_8|Compounds_3D_F|sdf|4|dock4|1

>  <rmsd>  (462) 
-1

$$$$
15|Compound_8|Compounds_3D_F|sdf|4|dock5|1
     RDKit          3D

  8  7  0  0  0  0  0  0  0  0999 V2000
   -8.3288  -13.6892   12.9626 O   0  0  0  0  0  0  0  0  0  0  0  0
   -7.3680  -14.4132   12.1921 C   0  0  0  0  0  0  0  0  0  0  0  0
   -5.9586  -14.0553   12.6667 C   0  0  0  0  0  0  0  0  0  0  0  0
   -4.9738  -14.7912   11.8692 N   0  0  0  0  0  0  0  0  0  0  0  0
   -4.8508  -16.1259   12.0135 C   0  0  0  0  0  0  0  0  0  0  0  0
   -5.5563  -16.7167   12.8028 O   0  0  0  0  0  0  0  0  0  0  0  0
   -3.7955  -16.9136   11.1598 B   0  0  0  0  0  0  0  0  0  0  0  0
   -5.7301  -12.5518   12.4988 C   0  0  0  0  0  0  0  0  0  0  0  0
  1  2  1  0
  2  3  1  0
  3  4  1  0
  3  8  1  0
  4  5  1  0
  5  6  2  0
  5  7  1  0
M  END
>  <Gold.Gold.Protein.RotatedWaterAtoms>  (463) 


>  <Gold.Id.Protein>  (463) 


>  <Gold.PLP.Chemscore.CHOScore>  (463) 
0.0000

>  <Gold.PLP.Chemscore.Hbond>  (463) 
1.9750

>  <Gold.PLP.Chemscore.Internal.Correction>  (463) 
0.0000

>  <Gold.PLP.Chemscore.Metal>  (463) 
0.0000

>  <Gold.PLP.Fitness>  (463) 
30.1062

>  <Gold.PLP.PLP>  (463) 
-24.3671

>  <Gold.PLP.ligand.clash>  (463) 
0.0000

>  <Gold.PLP.ligand.torsion>  (463) 
0.0930

>  <Gold.PLP.part.buried>  (463) 
-5.4675

>  <Gold.PLP.part.hbond>  (463) 
-2.3073

>  <Gold.PLP.part.metal>  (463) 
0.0000

>  <Gold.PLP.part.nonpolar>  (463) 
-17.1397

>  <Gold.PLP.part.repulsive>  (463) 
0.1405

>  <Gold.Protein.RotatedAtoms>  (463) 


>  <Gold.Protein.RotatedTorsions>  (463) 


>  <Gold.Protein.RotatedWaterAtoms>  (463) 


>  <Gold.Version>  (463) 
5.3.0

>  <PLP.Chemscore.CHOScore>  (463) 


>  <PLP.Chemscore.Hbond>  (463) 


>  <PLP.Chemscore.Internal.Correction>  (463) 


>  <PLP.Chemscore.Metal>  (463) 


>  <PLP.Fitness>  (463) 


>  <PLP.PLP>  (463) 


>  <PLP.ligand.clash>  (463) 


>  <PLP.ligand.torsion>  (463) 


>  <PLP.part.buried>  (463) 


>  <PLP.part.hbond>  (463) 


>  <PLP.part.metal>  (463) 


>  <PLP.part.nonpolar>  (463) 


>  <PLP.part.repulsive>  (463) 


>  <Version>  (463) 


$$$$
94|664022_40|Aromatic_carboxylic_acids_F|sdf|24|dock1|1
     RDKit          3D

 12 12  0  0  0  0  0  0  0  0999 V2000
   -8.2596  -17.1212   11.4595 C   0  0  0  0  0  0  0  0  0  0  0  0
   -7.6366  -15.8367   11.6688 N   0  0  0  0  0  0  0  0  0  0  0  0
   -8.3409  -14.6553   11.5719 C   0  0  0  0  0  0  0  0  0  0  0  0
   -9.5296  -14.5547   11.2978 O   0  0  0  0  0  0  0  0  0  0  0  0
   -7.5420  -13.4431   11.8503 C   0  0  0  0  0  0  0  0  0  0  0  0
   -8.1627  -12.1983   11.6738 C   0  0  0  0  0  0  0  0  0  0  0  0
   -7.4390  -11.0301   11.9055 C   0  0  0  0  0  0  0  0  0  0  0  0
   -6.1069  -11.0910   12.3103 C   0  0  0  0  0  0  0  0  0  0  0  0
   -5.4897  -12.3324   12.4853 C   0  0  0  0  0  0  0  0  0  0  0  0
   -6.2035  -13.5136   12.2549 C   0  0  0  0  0  0  0  0  0  0  0  0
   -5.3062  -15.1564   12.5638 Br  0  0  0  0  0  0  0  0  0  0  0  0
   -8.1960   -9.5005   11.6887 Cl  0  0  0  0  0  0  0  0  0  0  0  0
  1  2  1  0
  2  3  1  0
  3  4  2  0
  3  5  1  0
  5  6  2  0
  5 10  1  0
  6  7  1  0
  7  8  2  0
  7 12  1  0
  8  9  1  0
  9 10  2  0
 10 11  1  0
M  END
>  <Gold.Gold.Protein.RotatedWaterAtoms>  (464) 


>  <Gold.Id.Protein>  (464) 


>  <Gold.PLP.Chemscore.CHOScore>  (464) 
0.0000

>  <Gold.PLP.Chemscore.Hbond>  (464) 
0.4160

>  <Gold.PLP.Chemscore.Internal.Correction>  (464) 
0.0004

>  <Gold.PLP.Chemscore.Metal>  (464) 
0.0000

>  <Gold.PLP.Fitness>  (464) 
48.9046

>  <Gold.PLP.PLP>  (464) 
-47.6744

>  <Gold.PLP.ligand.clash>  (464) 
0.0000

>  <Gold.PLP.ligand.torsion>  (464) 
0.0091

>  <Gold.PLP.part.buried>  (464) 
-7.3578

>  <Gold.PLP.part.hbond>  (464) 
-0.5127

>  <Gold.PLP.part.metal>  (464) 
0.0000

>  <Gold.PLP.part.nonpolar>  (464) 
-40.3098

>  <Gold.PLP.part.repulsive>  (464) 
0.1684

>  <Gold.Protein.RotatedAtoms>  (464) 


>  <Gold.Protein.RotatedTorsions>  (464) 


>  <Gold.Protein.RotatedWaterAtoms>  (464) 


>  <Gold.Version>  (464) 
5.3.0

>  <PLP.Chemscore.CHOScore>  (464) 


>  <PLP.Chemscore.Hbond>  (464) 


>  <PLP.Chemscore.Internal.Correction>  (464) 


>  <PLP.Chemscore.Metal>  (464) 


>  <PLP.Fitness>  (464) 


>  <PLP.PLP>  (464) 


>  <PLP.ligand.clash>  (464) 


>  <PLP.ligand.torsion>  (464) 


>  <PLP.part.buried>  (464) 


>  <PLP.part.hbond>  (464) 


>  <PLP.part.metal>  (464) 


>  <PLP.part.nonpolar>  (464) 


>  <PLP.part.repulsive>  (464) 


>  <RMSD>  (464) 
0.30972197429

>  <Torsion>  (464) 
172.929186758

>  <TorsionO>  (464) 
24.4968065243

>  <TorsionR>  (464) 
162.574006718

>  <Version>  (464) 


>  <product>  (464) 
15|Compound_8|Compounds_3D_F|sdf|4|dock5|1

>  <rmsd>  (464) 
-1

$$$$
110|565385_49|Aromatic_carboxylic_acids_F|sdf|29|dock1|1
     RDKit          3D

 13 13  0  0  0  0  0  0  0  0999 V2000
  -10.1118  -17.9021   11.6320 C   0  0  0  0  0  0  0  0  0  0  0  0
   -9.7537  -16.5043   11.6546 N   0  0  0  0  0  0  0  0  0  0  0  0
   -8.4330  -16.1187   11.7930 C   0  0  0  0  0  0  0  0  0  0  0  0
   -7.5159  -16.9298   11.9008 O   0  0  0  0  0  0  0  0  0  0  0  0
   -8.1234  -14.6552   11.8105 C   0  0  0  0  0  0  0  0  0  0  0  0
   -9.0636  -13.6551   11.5375 C   0  0  0  0  0  0  0  0  0  0  0  0
   -8.6966  -12.3009   11.5726 C   0  0  0  0  0  0  0  0  0  0  0  0
   -7.3879  -11.9195   11.8809 C   0  0  0  0  0  0  0  0  0  0  0  0
   -6.4486  -12.9235   12.1551 C   0  0  0  0  0  0  0  0  0  0  0  0
   -6.8098  -14.2750   12.1207 C   0  0  0  0  0  0  0  0  0  0  0  0
   -4.6444  -12.5025   12.5849 Br  0  0  0  0  0  0  0  0  0  0  0  0
   -6.9476  -10.6242   11.9372 O   0  0  0  0  0  0  0  0  0  0  0  0
   -7.9020   -9.5910   11.7256 C   0  0  0  0  0  0  0  0  0  0  0  0
  1  2  1  0
  2  3  1  0
  3  4  2  0
  3  5  1  0
  5  6  2  0
  5 10  1  0
  6  7  1  0
  7  8  2  0
  8  9  1  0
  8 12  1  0
  9 10  2  0
  9 11  1  0
 12 13  1  0
M  END
>  <Gold.Gold.Protein.RotatedWaterAtoms>  (465) 


>  <Gold.Id.Protein>  (465) 


>  <Gold.PLP.Chemscore.CHOScore>  (465) 
0.0000

>  <Gold.PLP.Chemscore.Hbond>  (465) 
1.0000

>  <Gold.PLP.Chemscore.Internal.Correction>  (465) 
0.0000

>  <Gold.PLP.Chemscore.Metal>  (465) 
0.0000

>  <Gold.PLP.Fitness>  (465) 
43.9775

>  <Gold.PLP.PLP>  (465) 
-41.0517

>  <Gold.PLP.ligand.clash>  (465) 
0.0000

>  <Gold.PLP.ligand.torsion>  (465) 
0.0371

>  <Gold.PLP.part.buried>  (465) 
-3.7367

>  <Gold.PLP.part.hbond>  (465) 
-1.0000

>  <Gold.PLP.part.metal>  (465) 
0.0000

>  <Gold.PLP.part.nonpolar>  (465) 
-36.7483

>  <Gold.PLP.part.repulsive>  (465) 
0.4054

>  <Gold.Protein.RotatedAtoms>  (465) 


>  <Gold.Protein.RotatedTorsions>  (465) 


>  <Gold.Protein.RotatedWaterAtoms>  (465) 


>  <Gold.Version>  (465) 
5.3.0

>  <PLP.Chemscore.CHOScore>  (465) 


>  <PLP.Chemscore.Hbond>  (465) 


>  <PLP.Chemscore.Internal.Correction>  (465) 


>  <PLP.Chemscore.Metal>  (465) 


>  <PLP.Fitness>  (465) 


>  <PLP.PLP>  (465) 


>  <PLP.ligand.clash>  (465) 


>  <PLP.ligand.torsion>  (465) 


>  <PLP.part.buried>  (465) 


>  <PLP.part.hbond>  (465) 


>  <PLP.part.metal>  (465) 


>  <PLP.part.nonpolar>  (465) 


>  <PLP.part.repulsive>  (465) 


>  <RMSD>  (465) 
0.319376411377

>  <Torsion>  (465) 
169.460450784

>  <TorsionO>  (465) 
9.7963905484

>  <TorsionR>  (465) 
179.256841332

>  <Version>  (465) 


>  <product>  (465) 
15|Compound_8|Compounds_3D_F|sdf|4|dock5|1

>  <rmsd>  (465) 
-1

$$$$
128|137677_56|Aromatic_carboxylic_acids_F|sdf|33|dock1|1
     RDKit          3D

 11 11  0  0  0  0  0  0  0  0999 V2000
   -8.6116  -16.1544   11.8887 C   0  0  0  0  0  0  0  0  0  0  0  0
   -7.9978  -14.8484   11.9215 N   0  0  0  0  0  0  0  0  0  0  0  0
   -8.7778  -13.7008   11.8756 C   0  0  0  0  0  0  0  0  0  0  0  0
  -10.0002  -13.7896   11.8139 O   0  0  0  0  0  0  0  0  0  0  0  0
   -8.0808  -12.3609   11.9017 C   0  0  0  0  0  0  0  0  0  0  0  0
   -8.7916  -11.1851   11.5813 C   0  0  0  0  0  0  0  0  0  0  0  0
   -8.1781   -9.9267   11.5989 C   0  0  0  0  0  0  0  0  0  0  0  0
   -6.8391   -9.8089   11.9369 C   0  0  0  0  0  0  0  0  0  0  0  0
   -6.1124  -10.9502   12.2575 C   0  0  0  0  0  0  0  0  0  0  0  0
   -6.7171  -12.2196   12.2428 C   0  0  0  0  0  0  0  0  0  0  0  0
   -5.5419  -13.6455   12.7121 Br  0  0  0  0  0  0  0  0  0  0  0  0
  1  2  1  0
  2  3  1  0
  3  4  2  0
  3  5  1  0
  5  6  2  0
  5 10  1  0
  6  7  1  0
  7  8  2  0
  8  9  1  0
  9 10  2  0
 10 11  1  0
M  END
>  <Gold.Gold.Protein.RotatedWaterAtoms>  (466) 


>  <Gold.Id.Protein>  (466) 


>  <Gold.PLP.Chemscore.CHOScore>  (466) 
0.0000

>  <Gold.PLP.Chemscore.Hbond>  (466) 
1.0000

>  <Gold.PLP.Chemscore.Internal.Correction>  (466) 
0.0000

>  <Gold.PLP.Chemscore.Metal>  (466) 
0.0000

>  <Gold.PLP.Fitness>  (466) 
45.2899

>  <Gold.PLP.PLP>  (466) 
-42.4444

>  <Gold.PLP.ligand.clash>  (466) 
0.0000

>  <Gold.PLP.ligand.torsion>  (466) 
0.0772

>  <Gold.PLP.part.buried>  (466) 
-6.4690

>  <Gold.PLP.part.hbond>  (466) 
-0.6863

>  <Gold.PLP.part.metal>  (466) 
0.0000

>  <Gold.PLP.part.nonpolar>  (466) 
-34.8280

>  <Gold.PLP.part.repulsive>  (466) 
0.1963

>  <Gold.Protein.RotatedAtoms>  (466) 


>  <Gold.Protein.RotatedTorsions>  (466) 


>  <Gold.Protein.RotatedWaterAtoms>  (466) 


>  <Gold.Version>  (466) 
5.3.0

>  <PLP.Chemscore.CHOScore>  (466) 


>  <PLP.Chemscore.Hbond>  (466) 


>  <PLP.Chemscore.Internal.Correction>  (466) 


>  <PLP.Chemscore.Metal>  (466) 


>  <PLP.Fitness>  (466) 


>  <PLP.PLP>  (466) 


>  <PLP.ligand.clash>  (466) 


>  <PLP.ligand.torsion>  (466) 


>  <PLP.part.buried>  (466) 


>  <PLP.part.hbond>  (466) 


>  <PLP.part.metal>  (466) 


>  <PLP.part.nonpolar>  (466) 


>  <PLP.part.repulsive>  (466) 


>  <RMSD>  (466) 
0.428070490903

>  <Torsion>  (466) 
152.444048788

>  <TorsionO>  (466) 
39.0580871276

>  <TorsionR>  (466) 
168.497864085

>  <Version>  (466) 


>  <product>  (466) 
15|Compound_8|Compounds_3D_F|sdf|4|dock5|1

>  <rmsd>  (466) 
-1

$$$$
974|750794_1404|Aromatic_primary_amines_F|sdf|194|dock3|1
     RDKit          3D

 14 14  0  0  0  0  0  0  0  0999 V2000
  -13.6355  -18.1936    9.4145 C   0  0  0  0  0  0  0  0  0  0  0  0
  -13.2544  -19.4497   10.1732 C   0  0  0  0  0  0  0  0  0  0  0  0
  -11.8731  -19.3506   10.5383 O   0  0  0  0  0  0  0  0  0  0  0  0
  -11.6148  -18.5085   11.5823 C   0  0  0  0  0  0  0  0  0  0  0  0
  -12.3947  -18.2810   12.5004 O   0  0  0  0  0  0  0  0  0  0  0  0
  -10.3031  -17.8985   11.4902 C   0  0  0  0  0  0  0  0  0  0  0  0
   -9.1673  -18.4974   10.9931 C   0  0  0  0  0  0  0  0  0  0  0  0
   -8.1448  -17.6055   11.0758 O   0  0  0  0  0  0  0  0  0  0  0  0
   -8.7110  -16.4917   11.6237 C   0  0  0  0  0  0  0  0  0  0  0  0
   -9.9933  -16.6110   11.8915 N   0  0  0  0  0  0  0  0  0  0  0  0
   -7.9611  -15.3718   11.8549 N   0  0  0  0  0  0  0  0  0  0  0  0
   -8.5046  -14.1249   12.0676 C   0  0  0  0  0  0  0  0  0  0  0  0
   -9.6950  -13.8313   12.1035 O   0  0  0  0  0  0  0  0  0  0  0  0
   -7.4448  -13.0785   12.3021 C   0  0  0  0  0  0  0  0  0  0  0  0
  1  2  1  0
  2  3  1  0
  3  4  1  0
  4  5  2  0
  4  6  1  0
  6  7  2  0
  6 10  1  0
  7  8  1  0
  8  9  1  0
  9 10  2  0
  9 11  1  0
 11 12  1  0
 12 13  2  0
 12 14  1  0
M  END
>  <Gold.Gold.Protein.RotatedWaterAtoms>  (467) 


>  <Gold.Id.Protein>  (467) 


>  <Gold.PLP.Chemscore.CHOScore>  (467) 
0.0000

>  <Gold.PLP.Chemscore.Hbond>  (467) 
2.0000

>  <Gold.PLP.Chemscore.Internal.Correction>  (467) 
0.0053

>  <Gold.PLP.Chemscore.Metal>  (467) 
0.0000

>  <Gold.PLP.Fitness>  (467) 
36.8047

>  <Gold.PLP.PLP>  (467) 
-32.7996

>  <Gold.PLP.ligand.clash>  (467) 
0.0000

>  <Gold.PLP.ligand.torsion>  (467) 
1.0001

>  <Gold.PLP.part.buried>  (467) 
-6.5206

>  <Gold.PLP.part.hbond>  (467) 
-2.9156

>  <Gold.PLP.part.metal>  (467) 
0.0000

>  <Gold.PLP.part.nonpolar>  (467) 
-23.4080

>  <Gold.PLP.part.repulsive>  (467) 
0.3100

>  <Gold.Protein.RotatedAtoms>  (467) 


>  <Gold.Protein.RotatedTorsions>  (467) 


>  <Gold.Protein.RotatedWaterAtoms>  (467) 


>  <Gold.Version>  (467) 
5.3.0

>  <PLP.Chemscore.CHOScore>  (467) 


>  <PLP.Chemscore.Hbond>  (467) 


>  <PLP.Chemscore.Internal.Correction>  (467) 


>  <PLP.Chemscore.Metal>  (467) 


>  <PLP.Fitness>  (467) 


>  <PLP.PLP>  (467) 


>  <PLP.ligand.clash>  (467) 


>  <PLP.ligand.torsion>  (467) 


>  <PLP.part.buried>  (467) 


>  <PLP.part.hbond>  (467) 


>  <PLP.part.metal>  (467) 


>  <PLP.part.nonpolar>  (467) 


>  <PLP.part.repulsive>  (467) 


>  <RMSD>  (467) 
0.499949349045

>  <Torsion>  (467) 
159.973716791

>  <TorsionO>  (467) 
19.1052109979

>  <TorsionR>  (467) 
179.078927789

>  <Version>  (467) 


>  <product>  (467) 
15|Compound_8|Compounds_3D_F|sdf|4|dock5|1

>  <rmsd>  (467) 
-1

$$$$
1884|M3006_1781|Aromatic_primary_amines_F|sdf|361|dock3|1
     RDKit          3D

 31 34  0  0  0  0  0  0  0  0999 V2000
  -14.4210  -19.8971    8.7934 C   0  0  0  0  0  0  0  0  0  0  0  0
  -13.9762  -19.4927   10.1894 C   0  0  0  0  0  0  0  0  0  0  0  0
  -14.1356  -20.6409   11.1817 C   0  0  0  0  0  0  0  0  0  0  0  0
  -13.5197  -20.3070   12.5189 C   0  0  0  0  0  0  0  0  0  0  0  0
  -12.9307  -19.2724   12.7954 O   0  0  0  0  0  0  0  0  0  0  0  0
  -13.7110  -21.3451   13.3845 O   0  0  0  0  0  0  0  0  0  0  0  0
  -12.9425  -21.2698   14.5900 C   0  0  0  0  0  0  0  0  0  0  0  0
  -12.8849  -22.6189   15.2889 C   0  0  0  0  0  0  0  0  0  0  0  0
  -11.6552  -22.4172   16.1494 C   0  0  0  0  0  0  0  0  0  0  0  0
  -11.2420  -23.7410   16.7624 C   0  0  0  0  0  0  0  0  0  0  0  0
  -12.3024  -24.2223   17.5862 O   0  0  0  0  0  0  0  0  0  0  0  0
  -13.7888  -24.3384   16.9603 P   0  0  0  0  0  0  0  0  0  0  0  0
  -14.8775  -24.6795   17.9243 O   0  0  0  0  0  0  0  0  0  0  0  0
  -13.9839  -22.9641   16.1174 O   0  0  0  0  0  0  0  0  0  0  0  0
  -13.5991  -25.4435   15.8075 O   0  0  0  0  0  0  0  0  0  0  0  0
  -10.6922  -21.8161   15.2889 O   0  0  0  0  0  0  0  0  0  0  0  0
  -11.4338  -20.9664   14.3653 C   0  0  0  0  0  0  0  0  0  0  0  0
  -10.9052  -21.2017   13.0342 N   0  0  0  0  0  0  0  0  0  0  0  0
  -10.7814  -22.4114   12.4013 C   0  0  0  0  0  0  0  0  0  0  0  0
  -10.2640  -22.2918   11.1953 N   0  0  0  0  0  0  0  0  0  0  0  0
  -10.0274  -20.9476   11.0424 C   0  0  0  0  0  0  0  0  0  0  0  0
  -10.4203  -20.2487   12.1733 C   0  0  0  0  0  0  0  0  0  0  0  0
  -10.3338  -18.9216   12.3641 N   0  0  0  0  0  0  0  0  0  0  0  0
   -9.8057  -18.2730   11.3024 C   0  0  0  0  0  0  0  0  0  0  0  0
   -9.3808  -18.8370   10.1545 N   0  0  0  0  0  0  0  0  0  0  0  0
   -9.4895  -20.1691   10.0244 C   0  0  0  0  0  0  0  0  0  0  0  0
   -9.0330  -20.6622    8.8349 O   0  0  0  0  0  0  0  0  0  0  0  0
   -9.7222  -16.8901   11.4793 N   0  0  0  0  0  0  0  0  0  0  0  0
   -8.5796  -16.1798   11.7761 C   0  0  0  0  0  0  0  0  0  0  0  0
   -7.4445  -16.6221   11.9131 O   0  0  0  0  0  0  0  0  0  0  0  0
   -8.8524  -14.7024   11.8973 C   0  0  0  0  0  0  0  0  0  0  0  0
  1  2  1  0
  2  3  1  0
  3  4  1  0
  4  5  2  0
  4  6  1  0
  6  7  1  0
  7  8  1  0
  7 17  1  0
  8  9  1  0
  8 14  1  0
  9 10  1  0
  9 16  1  0
 10 11  1  0
 11 12  1  0
 12 13  2  0
 12 14  1  0
 12 15  1  0
 16 17  1  0
 17 18  1  0
 18 19  1  0
 18 22  1  0
 19 20  2  0
 20 21  1  0
 21 22  2  0
 21 26  1  0
 22 23  1  0
 23 24  2  0
 24 25  1  0
 24 28  1  0
 25 26  2  0
 26 27  1  0
 28 29  1  0
 29 30  2  0
 29 31  1  0
M  END
>  <Gold.Gold.Protein.RotatedWaterAtoms>  (468) 


>  <Gold.Id.Protein>  (468) 


>  <Gold.PLP.Chemscore.CHOScore>  (468) 
0.0000

>  <Gold.PLP.Chemscore.Hbond>  (468) 
1.2080

>  <Gold.PLP.Chemscore.Internal.Correction>  (468) 
0.1232

>  <Gold.PLP.Chemscore.Metal>  (468) 
0.0000

>  <Gold.PLP.Fitness>  (468) 
47.7145

>  <Gold.PLP.PLP>  (468) 
-46.0218

>  <Gold.PLP.ligand.clash>  (468) 
0.0000

>  <Gold.PLP.ligand.torsion>  (468) 
1.0272

>  <Gold.PLP.part.buried>  (468) 
-2.2958

>  <Gold.PLP.part.hbond>  (468) 
-4.0214

>  <Gold.PLP.part.metal>  (468) 
0.0000

>  <Gold.PLP.part.nonpolar>  (468) 
-41.4699

>  <Gold.PLP.part.repulsive>  (468) 
0.9524

>  <Gold.Protein.RotatedAtoms>  (468) 


>  <Gold.Protein.RotatedTorsions>  (468) 


>  <Gold.Protein.RotatedWaterAtoms>  (468) 


>  <Gold.Version>  (468) 
5.3.0

>  <PLP.Chemscore.CHOScore>  (468) 


>  <PLP.Chemscore.Hbond>  (468) 


>  <PLP.Chemscore.Internal.Correction>  (468) 


>  <PLP.Chemscore.Metal>  (468) 


>  <PLP.Fitness>  (468) 


>  <PLP.PLP>  (468) 


>  <PLP.ligand.clash>  (468) 


>  <PLP.ligand.torsion>  (468) 


>  <PLP.part.buried>  (468) 


>  <PLP.part.hbond>  (468) 


>  <PLP.part.metal>  (468) 


>  <PLP.part.nonpolar>  (468) 


>  <PLP.part.repulsive>  (468) 


>  <RMSD>  (468) 
0.291955871297

>  <Torsion>  (468) 
171.923704933

>  <TorsionO>  (468) 
6.03609353985

>  <TorsionR>  (468) 
177.959798473

>  <Version>  (468) 


>  <product>  (468) 
15|Compound_8|Compounds_3D_F|sdf|4|dock5|1

>  <rmsd>  (468) 
-1

$$$$
193|32168_281|Aromatic_primary_amines_F|sdf|39|dock6|1
     RDKit          3D

 23 25  0  0  0  0  0  0  0  0999 V2000
   -7.8439  -12.1461   11.8919 C   0  0  0  0  0  0  0  0  0  0  0  0
   -8.5691  -13.4472   11.6781 C   0  0  0  0  0  0  0  0  0  0  0  0
   -9.7886  -13.4981   11.5208 O   0  0  0  0  0  0  0  0  0  0  0  0
   -7.7264  -14.5390   11.7020 N   0  0  0  0  0  0  0  0  0  0  0  0
   -8.1889  -15.8197   11.5323 C   0  0  0  0  0  0  0  0  0  0  0  0
   -9.4747  -16.2039   11.8163 N   0  0  0  0  0  0  0  0  0  0  0  0
   -9.5964  -17.5375   11.5379 C   0  0  0  0  0  0  0  0  0  0  0  0
  -10.6643  -18.4283   11.6415 C   0  0  0  0  0  0  0  0  0  0  0  0
  -10.4051  -19.7586   11.2778 C   0  0  0  0  0  0  0  0  0  0  0  0
   -9.1530  -20.1507   10.7795 C   0  0  0  0  0  0  0  0  0  0  0  0
   -8.1017  -19.2294   10.6839 C   0  0  0  0  0  0  0  0  0  0  0  0
   -8.3349  -17.9032   11.0783 C   0  0  0  0  0  0  0  0  0  0  0  0
   -7.4773  -16.8281   11.0838 N   0  0  0  0  0  0  0  0  0  0  0  0
   -8.8530  -21.7658   10.2429 Cl  0  0  0  0  0  0  0  0  0  0  0  0
  -11.4669  -20.6323   11.3734 O   0  0  0  0  0  0  0  0  0  0  0  0
  -12.5262  -20.4408   10.5053 C   0  0  0  0  0  0  0  0  0  0  0  0
  -13.3188  -19.2846   10.5304 C   0  0  0  0  0  0  0  0  0  0  0  0
  -14.3665  -19.1344    9.6224 C   0  0  0  0  0  0  0  0  0  0  0  0
  -14.6219  -20.1279    8.6796 C   0  0  0  0  0  0  0  0  0  0  0  0
  -13.8238  -21.2756    8.6345 C   0  0  0  0  0  0  0  0  0  0  0  0
  -12.7674  -21.4342    9.5416 C   0  0  0  0  0  0  0  0  0  0  0  0
  -11.7588  -22.8458    9.4996 Cl  0  0  0  0  0  0  0  0  0  0  0  0
  -14.1988  -22.4584    7.4296 Cl  0  0  0  0  0  0  0  0  0  0  0  0
  1  2  1  0
  2  3  2  0
  2  4  1  0
  4  5  1  0
  5  6  1  0
  5 13  2  0
  6  7  1  0
  7  8  2  0
  7 12  1  0
  8  9  1  0
  9 10  2  0
  9 15  1  0
 10 11  1  0
 10 14  1  0
 11 12  2  0
 12 13  1  0
 15 16  1  0
 16 17  2  0
 16 21  1  0
 17 18  1  0
 18 19  2  0
 19 20  1  0
 20 21  2  0
 20 23  1  0
 21 22  1  0
M  END
>  <Gold.Gold.Protein.RotatedWaterAtoms>  (469) 


>  <Gold.Id.Protein>  (469) 


>  <Gold.PLP.Chemscore.CHOScore>  (469) 
0.0000

>  <Gold.PLP.Chemscore.Hbond>  (469) 
1.0000

>  <Gold.PLP.Chemscore.Internal.Correction>  (469) 
0.0086

>  <Gold.PLP.Chemscore.Metal>  (469) 
0.0000

>  <Gold.PLP.Fitness>  (469) 
50.7139

>  <Gold.PLP.PLP>  (469) 
-48.1706

>  <Gold.PLP.ligand.clash>  (469) 
0.0000

>  <Gold.PLP.ligand.torsion>  (469) 
0.2327

>  <Gold.PLP.part.buried>  (469) 
-6.5205

>  <Gold.PLP.part.hbond>  (469) 
-2.0000

>  <Gold.PLP.part.metal>  (469) 
0.0000

>  <Gold.PLP.part.nonpolar>  (469) 
-39.3857

>  <Gold.PLP.part.repulsive>  (469) 
0.3298

>  <Gold.Protein.RotatedAtoms>  (469) 


>  <Gold.Protein.RotatedTorsions>  (469) 


>  <Gold.Protein.RotatedWaterAtoms>  (469) 


>  <Gold.Version>  (469) 
5.3.0

>  <PLP.Chemscore.CHOScore>  (469) 


>  <PLP.Chemscore.Hbond>  (469) 


>  <PLP.Chemscore.Internal.Correction>  (469) 


>  <PLP.Chemscore.Metal>  (469) 


>  <PLP.Fitness>  (469) 


>  <PLP.PLP>  (469) 


>  <PLP.ligand.clash>  (469) 


>  <PLP.ligand.torsion>  (469) 


>  <PLP.part.buried>  (469) 


>  <PLP.part.hbond>  (469) 


>  <PLP.part.metal>  (469) 


>  <PLP.part.nonpolar>  (469) 


>  <PLP.part.repulsive>  (469) 


>  <RMSD>  (469) 
0.439733510035

>  <Torsion>  (469) 
177.672185574

>  <TorsionO>  (469) 
4.31728583372

>  <TorsionR>  (469) 
173.35489974

>  <Version>  (469) 


>  <product>  (469) 
15|Compound_8|Compounds_3D_F|sdf|4|dock5|1

>  <rmsd>  (469) 
-1

$$$$
71|Compound_26|Compounds_3D_F|sdf|12|dock3|1
     RDKit          3D

  9  8  0  0  0  0  0  0  0  0999 V2000
   -4.5961  -12.3722   13.3343 O   0  0  0  0  0  0  0  0  0  0  0  0
   -5.6403  -12.2832   12.4968 C   0  0  0  0  0  0  0  0  0  0  0  0
   -6.1222  -11.2040   12.2429 O   0  0  0  0  0  0  0  0  0  0  0  0
   -6.2141  -13.5292   11.8724 C   0  0  0  0  0  0  0  0  0  0  0  0
   -5.6912  -14.7602   12.6154 C   0  0  0  0  0  0  0  0  0  0  0  0
   -4.5868  -15.3554   11.8586 N   0  0  0  0  0  0  0  0  0  0  0  0
   -4.2768  -16.6555   12.0289 C   0  0  0  0  0  0  0  0  0  0  0  0
   -4.9116  -17.3335   12.8083 O   0  0  0  0  0  0  0  0  0  0  0  0
   -3.0942  -17.2937   11.2166 B   0  0  0  0  0  0  0  0  0  0  0  0
  1  2  1  0
  2  3  2  0
  2  4  1  0
  4  5  1  0
  5  6  1  0
  6  7  1  0
  7  8  2  0
  7  9  1  0
M  END
>  <Gold.Gold.Protein.RotatedWaterAtoms>  (470) 


>  <Gold.Id.Protein>  (470) 


>  <Gold.PLP.Chemscore.CHOScore>  (470) 
0.0000

>  <Gold.PLP.Chemscore.Hbond>  (470) 
2.0000

>  <Gold.PLP.Chemscore.Internal.Correction>  (470) 
0.0004

>  <Gold.PLP.Chemscore.Metal>  (470) 
0.0000

>  <Gold.PLP.Fitness>  (470) 
32.2904

>  <Gold.PLP.PLP>  (470) 
-28.4954

>  <Gold.PLP.ligand.clash>  (470) 
0.9515

>  <Gold.PLP.ligand.torsion>  (470) 
0.6270

>  <Gold.PLP.part.buried>  (470) 
-7.1903

>  <Gold.PLP.part.hbond>  (470) 
-4.5708

>  <Gold.PLP.part.metal>  (470) 
0.0000

>  <Gold.PLP.part.nonpolar>  (470) 
-17.2005

>  <Gold.PLP.part.repulsive>  (470) 
0.4282

>  <Gold.Protein.RotatedAtoms>  (470) 


>  <Gold.Protein.RotatedTorsions>  (470) 


>  <Gold.Protein.RotatedWaterAtoms>  (470) 


>  <Gold.Version>  (470) 
5.3.0

>  <PLP.Chemscore.CHOScore>  (470) 


>  <PLP.Chemscore.Hbond>  (470) 


>  <PLP.Chemscore.Internal.Correction>  (470) 


>  <PLP.Chemscore.Metal>  (470) 


>  <PLP.Fitness>  (470) 


>  <PLP.PLP>  (470) 


>  <PLP.ligand.clash>  (470) 


>  <PLP.ligand.torsion>  (470) 


>  <PLP.part.buried>  (470) 


>  <PLP.part.hbond>  (470) 


>  <PLP.part.metal>  (470) 


>  <PLP.part.nonpolar>  (470) 


>  <PLP.part.repulsive>  (470) 


>  <Version>  (470) 


$$$$
94|664022_40|Aromatic_carboxylic_acids_F|sdf|24|dock1|1
     RDKit          3D

 12 12  0  0  0  0  0  0  0  0999 V2000
   -8.2596  -17.1212   11.4595 C   0  0  0  0  0  0  0  0  0  0  0  0
   -7.6366  -15.8367   11.6688 N   0  0  0  0  0  0  0  0  0  0  0  0
   -8.3409  -14.6553   11.5719 C   0  0  0  0  0  0  0  0  0  0  0  0
   -9.5296  -14.5547   11.2978 O   0  0  0  0  0  0  0  0  0  0  0  0
   -7.5420  -13.4431   11.8503 C   0  0  0  0  0  0  0  0  0  0  0  0
   -8.1627  -12.1983   11.6738 C   0  0  0  0  0  0  0  0  0  0  0  0
   -7.4390  -11.0301   11.9055 C   0  0  0  0  0  0  0  0  0  0  0  0
   -6.1069  -11.0910   12.3103 C   0  0  0  0  0  0  0  0  0  0  0  0
   -5.4897  -12.3324   12.4853 C   0  0  0  0  0  0  0  0  0  0  0  0
   -6.2035  -13.5136   12.2549 C   0  0  0  0  0  0  0  0  0  0  0  0
   -5.3062  -15.1564   12.5638 Br  0  0  0  0  0  0  0  0  0  0  0  0
   -8.1960   -9.5005   11.6887 Cl  0  0  0  0  0  0  0  0  0  0  0  0
  1  2  1  0
  2  3  1  0
  3  4  2  0
  3  5  1  0
  5  6  2  0
  5 10  1  0
  6  7  1  0
  7  8  2  0
  7 12  1  0
  8  9  1  0
  9 10  2  0
 10 11  1  0
M  END
>  <Gold.Gold.Protein.RotatedWaterAtoms>  (471) 


>  <Gold.Id.Protein>  (471) 


>  <Gold.PLP.Chemscore.CHOScore>  (471) 
0.0000

>  <Gold.PLP.Chemscore.Hbond>  (471) 
0.4160

>  <Gold.PLP.Chemscore.Internal.Correction>  (471) 
0.0004

>  <Gold.PLP.Chemscore.Metal>  (471) 
0.0000

>  <Gold.PLP.Fitness>  (471) 
48.9046

>  <Gold.PLP.PLP>  (471) 
-47.6744

>  <Gold.PLP.ligand.clash>  (471) 
0.0000

>  <Gold.PLP.ligand.torsion>  (471) 
0.0091

>  <Gold.PLP.part.buried>  (471) 
-7.3578

>  <Gold.PLP.part.hbond>  (471) 
-0.5127

>  <Gold.PLP.part.metal>  (471) 
0.0000

>  <Gold.PLP.part.nonpolar>  (471) 
-40.3098

>  <Gold.PLP.part.repulsive>  (471) 
0.1684

>  <Gold.Protein.RotatedAtoms>  (471) 


>  <Gold.Protein.RotatedTorsions>  (471) 


>  <Gold.Protein.RotatedWaterAtoms>  (471) 


>  <Gold.Version>  (471) 
5.3.0

>  <PLP.Chemscore.CHOScore>  (471) 


>  <PLP.Chemscore.Hbond>  (471) 


>  <PLP.Chemscore.Internal.Correction>  (471) 


>  <PLP.Chemscore.Metal>  (471) 


>  <PLP.Fitness>  (471) 


>  <PLP.PLP>  (471) 


>  <PLP.ligand.clash>  (471) 


>  <PLP.ligand.torsion>  (471) 


>  <PLP.part.buried>  (471) 


>  <PLP.part.hbond>  (471) 


>  <PLP.part.metal>  (471) 


>  <PLP.part.nonpolar>  (471) 


>  <PLP.part.repulsive>  (471) 


>  <RMSD>  (471) 
0.30972197429

>  <Torsion>  (471) 
172.929186758

>  <TorsionO>  (471) 
24.4968065243

>  <TorsionR>  (471) 
162.574006718

>  <Version>  (471) 


>  <product>  (471) 
71|Compound_26|Compounds_3D_F|sdf|12|dock3|1

>  <rmsd>  (471) 
-1

$$$$
110|565385_49|Aromatic_carboxylic_acids_F|sdf|29|dock1|1
     RDKit          3D

 13 13  0  0  0  0  0  0  0  0999 V2000
  -10.1118  -17.9021   11.6320 C   0  0  0  0  0  0  0  0  0  0  0  0
   -9.7537  -16.5043   11.6546 N   0  0  0  0  0  0  0  0  0  0  0  0
   -8.4330  -16.1187   11.7930 C   0  0  0  0  0  0  0  0  0  0  0  0
   -7.5159  -16.9298   11.9008 O   0  0  0  0  0  0  0  0  0  0  0  0
   -8.1234  -14.6552   11.8105 C   0  0  0  0  0  0  0  0  0  0  0  0
   -9.0636  -13.6551   11.5375 C   0  0  0  0  0  0  0  0  0  0  0  0
   -8.6966  -12.3009   11.5726 C   0  0  0  0  0  0  0  0  0  0  0  0
   -7.3879  -11.9195   11.8809 C   0  0  0  0  0  0  0  0  0  0  0  0
   -6.4486  -12.9235   12.1551 C   0  0  0  0  0  0  0  0  0  0  0  0
   -6.8098  -14.2750   12.1207 C   0  0  0  0  0  0  0  0  0  0  0  0
   -4.6444  -12.5025   12.5849 Br  0  0  0  0  0  0  0  0  0  0  0  0
   -6.9476  -10.6242   11.9372 O   0  0  0  0  0  0  0  0  0  0  0  0
   -7.9020   -9.5910   11.7256 C   0  0  0  0  0  0  0  0  0  0  0  0
  1  2  1  0
  2  3  1  0
  3  4  2  0
  3  5  1  0
  5  6  2  0
  5 10  1  0
  6  7  1  0
  7  8  2  0
  8  9  1  0
  8 12  1  0
  9 10  2  0
  9 11  1  0
 12 13  1  0
M  END
>  <Gold.Gold.Protein.RotatedWaterAtoms>  (472) 


>  <Gold.Id.Protein>  (472) 


>  <Gold.PLP.Chemscore.CHOScore>  (472) 
0.0000

>  <Gold.PLP.Chemscore.Hbond>  (472) 
1.0000

>  <Gold.PLP.Chemscore.Internal.Correction>  (472) 
0.0000

>  <Gold.PLP.Chemscore.Metal>  (472) 
0.0000

>  <Gold.PLP.Fitness>  (472) 
43.9775

>  <Gold.PLP.PLP>  (472) 
-41.0517

>  <Gold.PLP.ligand.clash>  (472) 
0.0000

>  <Gold.PLP.ligand.torsion>  (472) 
0.0371

>  <Gold.PLP.part.buried>  (472) 
-3.7367

>  <Gold.PLP.part.hbond>  (472) 
-1.0000

>  <Gold.PLP.part.metal>  (472) 
0.0000

>  <Gold.PLP.part.nonpolar>  (472) 
-36.7483

>  <Gold.PLP.part.repulsive>  (472) 
0.4054

>  <Gold.Protein.RotatedAtoms>  (472) 


>  <Gold.Protein.RotatedTorsions>  (472) 


>  <Gold.Protein.RotatedWaterAtoms>  (472) 


>  <Gold.Version>  (472) 
5.3.0

>  <PLP.Chemscore.CHOScore>  (472) 


>  <PLP.Chemscore.Hbond>  (472) 


>  <PLP.Chemscore.Internal.Correction>  (472) 


>  <PLP.Chemscore.Metal>  (472) 


>  <PLP.Fitness>  (472) 


>  <PLP.PLP>  (472) 


>  <PLP.ligand.clash>  (472) 


>  <PLP.ligand.torsion>  (472) 


>  <PLP.part.buried>  (472) 


>  <PLP.part.hbond>  (472) 


>  <PLP.part.metal>  (472) 


>  <PLP.part.nonpolar>  (472) 


>  <PLP.part.repulsive>  (472) 


>  <RMSD>  (472) 
0.319376411377

>  <Torsion>  (472) 
169.460450784

>  <TorsionO>  (472) 
9.7963905484

>  <TorsionR>  (472) 
179.256841332

>  <Version>  (472) 


>  <product>  (472) 
71|Compound_26|Compounds_3D_F|sdf|12|dock3|1

>  <rmsd>  (472) 
-1

$$$$
128|137677_56|Aromatic_carboxylic_acids_F|sdf|33|dock1|1
     RDKit          3D

 11 11  0  0  0  0  0  0  0  0999 V2000
   -8.6116  -16.1544   11.8887 C   0  0  0  0  0  0  0  0  0  0  0  0
   -7.9978  -14.8484   11.9215 N   0  0  0  0  0  0  0  0  0  0  0  0
   -8.7778  -13.7008   11.8756 C   0  0  0  0  0  0  0  0  0  0  0  0
  -10.0002  -13.7896   11.8139 O   0  0  0  0  0  0  0  0  0  0  0  0
   -8.0808  -12.3609   11.9017 C   0  0  0  0  0  0  0  0  0  0  0  0
   -8.7916  -11.1851   11.5813 C   0  0  0  0  0  0  0  0  0  0  0  0
   -8.1781   -9.9267   11.5989 C   0  0  0  0  0  0  0  0  0  0  0  0
   -6.8391   -9.8089   11.9369 C   0  0  0  0  0  0  0  0  0  0  0  0
   -6.1124  -10.9502   12.2575 C   0  0  0  0  0  0  0  0  0  0  0  0
   -6.7171  -12.2196   12.2428 C   0  0  0  0  0  0  0  0  0  0  0  0
   -5.5419  -13.6455   12.7121 Br  0  0  0  0  0  0  0  0  0  0  0  0
  1  2  1  0
  2  3  1  0
  3  4  2  0
  3  5  1  0
  5  6  2  0
  5 10  1  0
  6  7  1  0
  7  8  2  0
  8  9  1  0
  9 10  2  0
 10 11  1  0
M  END
>  <Gold.Gold.Protein.RotatedWaterAtoms>  (473) 


>  <Gold.Id.Protein>  (473) 


>  <Gold.PLP.Chemscore.CHOScore>  (473) 
0.0000

>  <Gold.PLP.Chemscore.Hbond>  (473) 
1.0000

>  <Gold.PLP.Chemscore.Internal.Correction>  (473) 
0.0000

>  <Gold.PLP.Chemscore.Metal>  (473) 
0.0000

>  <Gold.PLP.Fitness>  (473) 
45.2899

>  <Gold.PLP.PLP>  (473) 
-42.4444

>  <Gold.PLP.ligand.clash>  (473) 
0.0000

>  <Gold.PLP.ligand.torsion>  (473) 
0.0772

>  <Gold.PLP.part.buried>  (473) 
-6.4690

>  <Gold.PLP.part.hbond>  (473) 
-0.6863

>  <Gold.PLP.part.metal>  (473) 
0.0000

>  <Gold.PLP.part.nonpolar>  (473) 
-34.8280

>  <Gold.PLP.part.repulsive>  (473) 
0.1963

>  <Gold.Protein.RotatedAtoms>  (473) 


>  <Gold.Protein.RotatedTorsions>  (473) 


>  <Gold.Protein.RotatedWaterAtoms>  (473) 


>  <Gold.Version>  (473) 
5.3.0

>  <PLP.Chemscore.CHOScore>  (473) 


>  <PLP.Chemscore.Hbond>  (473) 


>  <PLP.Chemscore.Internal.Correction>  (473) 


>  <PLP.Chemscore.Metal>  (473) 


>  <PLP.Fitness>  (473) 


>  <PLP.PLP>  (473) 


>  <PLP.ligand.clash>  (473) 


>  <PLP.ligand.torsion>  (473) 


>  <PLP.part.buried>  (473) 


>  <PLP.part.hbond>  (473) 


>  <PLP.part.metal>  (473) 


>  <PLP.part.nonpolar>  (473) 


>  <PLP.part.repulsive>  (473) 


>  <RMSD>  (473) 
0.428070490903

>  <Torsion>  (473) 
152.444048788

>  <TorsionO>  (473) 
39.0580871276

>  <TorsionR>  (473) 
168.497864085

>  <Version>  (473) 


>  <product>  (473) 
71|Compound_26|Compounds_3D_F|sdf|12|dock3|1

>  <rmsd>  (473) 
-1

$$$$
974|750794_1404|Aromatic_primary_amines_F|sdf|194|dock3|1
     RDKit          3D

 14 14  0  0  0  0  0  0  0  0999 V2000
  -13.6355  -18.1936    9.4145 C   0  0  0  0  0  0  0  0  0  0  0  0
  -13.2544  -19.4497   10.1732 C   0  0  0  0  0  0  0  0  0  0  0  0
  -11.8731  -19.3506   10.5383 O   0  0  0  0  0  0  0  0  0  0  0  0
  -11.6148  -18.5085   11.5823 C   0  0  0  0  0  0  0  0  0  0  0  0
  -12.3947  -18.2810   12.5004 O   0  0  0  0  0  0  0  0  0  0  0  0
  -10.3031  -17.8985   11.4902 C   0  0  0  0  0  0  0  0  0  0  0  0
   -9.1673  -18.4974   10.9931 C   0  0  0  0  0  0  0  0  0  0  0  0
   -8.1448  -17.6055   11.0758 O   0  0  0  0  0  0  0  0  0  0  0  0
   -8.7110  -16.4917   11.6237 C   0  0  0  0  0  0  0  0  0  0  0  0
   -9.9933  -16.6110   11.8915 N   0  0  0  0  0  0  0  0  0  0  0  0
   -7.9611  -15.3718   11.8549 N   0  0  0  0  0  0  0  0  0  0  0  0
   -8.5046  -14.1249   12.0676 C   0  0  0  0  0  0  0  0  0  0  0  0
   -9.6950  -13.8313   12.1035 O   0  0  0  0  0  0  0  0  0  0  0  0
   -7.4448  -13.0785   12.3021 C   0  0  0  0  0  0  0  0  0  0  0  0
  1  2  1  0
  2  3  1  0
  3  4  1  0
  4  5  2  0
  4  6  1  0
  6  7  2  0
  6 10  1  0
  7  8  1  0
  8  9  1  0
  9 10  2  0
  9 11  1  0
 11 12  1  0
 12 13  2  0
 12 14  1  0
M  END
>  <Gold.Gold.Protein.RotatedWaterAtoms>  (474) 


>  <Gold.Id.Protein>  (474) 


>  <Gold.PLP.Chemscore.CHOScore>  (474) 
0.0000

>  <Gold.PLP.Chemscore.Hbond>  (474) 
2.0000

>  <Gold.PLP.Chemscore.Internal.Correction>  (474) 
0.0053

>  <Gold.PLP.Chemscore.Metal>  (474) 
0.0000

>  <Gold.PLP.Fitness>  (474) 
36.8047

>  <Gold.PLP.PLP>  (474) 
-32.7996

>  <Gold.PLP.ligand.clash>  (474) 
0.0000

>  <Gold.PLP.ligand.torsion>  (474) 
1.0001

>  <Gold.PLP.part.buried>  (474) 
-6.5206

>  <Gold.PLP.part.hbond>  (474) 
-2.9156

>  <Gold.PLP.part.metal>  (474) 
0.0000

>  <Gold.PLP.part.nonpolar>  (474) 
-23.4080

>  <Gold.PLP.part.repulsive>  (474) 
0.3100

>  <Gold.Protein.RotatedAtoms>  (474) 


>  <Gold.Protein.RotatedTorsions>  (474) 


>  <Gold.Protein.RotatedWaterAtoms>  (474) 


>  <Gold.Version>  (474) 
5.3.0

>  <PLP.Chemscore.CHOScore>  (474) 


>  <PLP.Chemscore.Hbond>  (474) 


>  <PLP.Chemscore.Internal.Correction>  (474) 


>  <PLP.Chemscore.Metal>  (474) 


>  <PLP.Fitness>  (474) 


>  <PLP.PLP>  (474) 


>  <PLP.ligand.clash>  (474) 


>  <PLP.ligand.torsion>  (474) 


>  <PLP.part.buried>  (474) 


>  <PLP.part.hbond>  (474) 


>  <PLP.part.metal>  (474) 


>  <PLP.part.nonpolar>  (474) 


>  <PLP.part.repulsive>  (474) 


>  <RMSD>  (474) 
0.499949349045

>  <Torsion>  (474) 
159.973716791

>  <TorsionO>  (474) 
19.1052109979

>  <TorsionR>  (474) 
179.078927789

>  <Version>  (474) 


>  <product>  (474) 
71|Compound_26|Compounds_3D_F|sdf|12|dock3|1

>  <rmsd>  (474) 
-1

$$$$
1884|M3006_1781|Aromatic_primary_amines_F|sdf|361|dock3|1
     RDKit          3D

 31 34  0  0  0  0  0  0  0  0999 V2000
  -14.4210  -19.8971    8.7934 C   0  0  0  0  0  0  0  0  0  0  0  0
  -13.9762  -19.4927   10.1894 C   0  0  0  0  0  0  0  0  0  0  0  0
  -14.1356  -20.6409   11.1817 C   0  0  0  0  0  0  0  0  0  0  0  0
  -13.5197  -20.3070   12.5189 C   0  0  0  0  0  0  0  0  0  0  0  0
  -12.9307  -19.2724   12.7954 O   0  0  0  0  0  0  0  0  0  0  0  0
  -13.7110  -21.3451   13.3845 O   0  0  0  0  0  0  0  0  0  0  0  0
  -12.9425  -21.2698   14.5900 C   0  0  0  0  0  0  0  0  0  0  0  0
  -12.8849  -22.6189   15.2889 C   0  0  0  0  0  0  0  0  0  0  0  0
  -11.6552  -22.4172   16.1494 C   0  0  0  0  0  0  0  0  0  0  0  0
  -11.2420  -23.7410   16.7624 C   0  0  0  0  0  0  0  0  0  0  0  0
  -12.3024  -24.2223   17.5862 O   0  0  0  0  0  0  0  0  0  0  0  0
  -13.7888  -24.3384   16.9603 P   0  0  0  0  0  0  0  0  0  0  0  0
  -14.8775  -24.6795   17.9243 O   0  0  0  0  0  0  0  0  0  0  0  0
  -13.9839  -22.9641   16.1174 O   0  0  0  0  0  0  0  0  0  0  0  0
  -13.5991  -25.4435   15.8075 O   0  0  0  0  0  0  0  0  0  0  0  0
  -10.6922  -21.8161   15.2889 O   0  0  0  0  0  0  0  0  0  0  0  0
  -11.4338  -20.9664   14.3653 C   0  0  0  0  0  0  0  0  0  0  0  0
  -10.9052  -21.2017   13.0342 N   0  0  0  0  0  0  0  0  0  0  0  0
  -10.7814  -22.4114   12.4013 C   0  0  0  0  0  0  0  0  0  0  0  0
  -10.2640  -22.2918   11.1953 N   0  0  0  0  0  0  0  0  0  0  0  0
  -10.0274  -20.9476   11.0424 C   0  0  0  0  0  0  0  0  0  0  0  0
  -10.4203  -20.2487   12.1733 C   0  0  0  0  0  0  0  0  0  0  0  0
  -10.3338  -18.9216   12.3641 N   0  0  0  0  0  0  0  0  0  0  0  0
   -9.8057  -18.2730   11.3024 C   0  0  0  0  0  0  0  0  0  0  0  0
   -9.3808  -18.8370   10.1545 N   0  0  0  0  0  0  0  0  0  0  0  0
   -9.4895  -20.1691   10.0244 C   0  0  0  0  0  0  0  0  0  0  0  0
   -9.0330  -20.6622    8.8349 O   0  0  0  0  0  0  0  0  0  0  0  0
   -9.7222  -16.8901   11.4793 N   0  0  0  0  0  0  0  0  0  0  0  0
   -8.5796  -16.1798   11.7761 C   0  0  0  0  0  0  0  0  0  0  0  0
   -7.4445  -16.6221   11.9131 O   0  0  0  0  0  0  0  0  0  0  0  0
   -8.8524  -14.7024   11.8973 C   0  0  0  0  0  0  0  0  0  0  0  0
  1  2  1  0
  2  3  1  0
  3  4  1  0
  4  5  2  0
  4  6  1  0
  6  7  1  0
  7  8  1  0
  7 17  1  0
  8  9  1  0
  8 14  1  0
  9 10  1  0
  9 16  1  0
 10 11  1  0
 11 12  1  0
 12 13  2  0
 12 14  1  0
 12 15  1  0
 16 17  1  0
 17 18  1  0
 18 19  1  0
 18 22  1  0
 19 20  2  0
 20 21  1  0
 21 22  2  0
 21 26  1  0
 22 23  1  0
 23 24  2  0
 24 25  1  0
 24 28  1  0
 25 26  2  0
 26 27  1  0
 28 29  1  0
 29 30  2  0
 29 31  1  0
M  END
>  <Gold.Gold.Protein.RotatedWaterAtoms>  (475) 


>  <Gold.Id.Protein>  (475) 


>  <Gold.PLP.Chemscore.CHOScore>  (475) 
0.0000

>  <Gold.PLP.Chemscore.Hbond>  (475) 
1.2080

>  <Gold.PLP.Chemscore.Internal.Correction>  (475) 
0.1232

>  <Gold.PLP.Chemscore.Metal>  (475) 
0.0000

>  <Gold.PLP.Fitness>  (475) 
47.7145

>  <Gold.PLP.PLP>  (475) 
-46.0218

>  <Gold.PLP.ligand.clash>  (475) 
0.0000

>  <Gold.PLP.ligand.torsion>  (475) 
1.0272

>  <Gold.PLP.part.buried>  (475) 
-2.2958

>  <Gold.PLP.part.hbond>  (475) 
-4.0214

>  <Gold.PLP.part.metal>  (475) 
0.0000

>  <Gold.PLP.part.nonpolar>  (475) 
-41.4699

>  <Gold.PLP.part.repulsive>  (475) 
0.9524

>  <Gold.Protein.RotatedAtoms>  (475) 


>  <Gold.Protein.RotatedTorsions>  (475) 


>  <Gold.Protein.RotatedWaterAtoms>  (475) 


>  <Gold.Version>  (475) 
5.3.0

>  <PLP.Chemscore.CHOScore>  (475) 


>  <PLP.Chemscore.Hbond>  (475) 


>  <PLP.Chemscore.Internal.Correction>  (475) 


>  <PLP.Chemscore.Metal>  (475) 


>  <PLP.Fitness>  (475) 


>  <PLP.PLP>  (475) 


>  <PLP.ligand.clash>  (475) 


>  <PLP.ligand.torsion>  (475) 


>  <PLP.part.buried>  (475) 


>  <PLP.part.hbond>  (475) 


>  <PLP.part.metal>  (475) 


>  <PLP.part.nonpolar>  (475) 


>  <PLP.part.repulsive>  (475) 


>  <RMSD>  (475) 
0.291955871297

>  <Torsion>  (475) 
171.923704933

>  <TorsionO>  (475) 
6.03609353985

>  <TorsionR>  (475) 
177.959798473

>  <Version>  (475) 


>  <product>  (475) 
71|Compound_26|Compounds_3D_F|sdf|12|dock3|1

>  <rmsd>  (475) 
-1

$$$$
193|32168_281|Aromatic_primary_amines_F|sdf|39|dock6|1
     RDKit          3D

 23 25  0  0  0  0  0  0  0  0999 V2000
   -7.8439  -12.1461   11.8919 C   0  0  0  0  0  0  0  0  0  0  0  0
   -8.5691  -13.4472   11.6781 C   0  0  0  0  0  0  0  0  0  0  0  0
   -9.7886  -13.4981   11.5208 O   0  0  0  0  0  0  0  0  0  0  0  0
   -7.7264  -14.5390   11.7020 N   0  0  0  0  0  0  0  0  0  0  0  0
   -8.1889  -15.8197   11.5323 C   0  0  0  0  0  0  0  0  0  0  0  0
   -9.4747  -16.2039   11.8163 N   0  0  0  0  0  0  0  0  0  0  0  0
   -9.5964  -17.5375   11.5379 C   0  0  0  0  0  0  0  0  0  0  0  0
  -10.6643  -18.4283   11.6415 C   0  0  0  0  0  0  0  0  0  0  0  0
  -10.4051  -19.7586   11.2778 C   0  0  0  0  0  0  0  0  0  0  0  0
   -9.1530  -20.1507   10.7795 C   0  0  0  0  0  0  0  0  0  0  0  0
   -8.1017  -19.2294   10.6839 C   0  0  0  0  0  0  0  0  0  0  0  0
   -8.3349  -17.9032   11.0783 C   0  0  0  0  0  0  0  0  0  0  0  0
   -7.4773  -16.8281   11.0838 N   0  0  0  0  0  0  0  0  0  0  0  0
   -8.8530  -21.7658   10.2429 Cl  0  0  0  0  0  0  0  0  0  0  0  0
  -11.4669  -20.6323   11.3734 O   0  0  0  0  0  0  0  0  0  0  0  0
  -12.5262  -20.4408   10.5053 C   0  0  0  0  0  0  0  0  0  0  0  0
  -13.3188  -19.2846   10.5304 C   0  0  0  0  0  0  0  0  0  0  0  0
  -14.3665  -19.1344    9.6224 C   0  0  0  0  0  0  0  0  0  0  0  0
  -14.6219  -20.1279    8.6796 C   0  0  0  0  0  0  0  0  0  0  0  0
  -13.8238  -21.2756    8.6345 C   0  0  0  0  0  0  0  0  0  0  0  0
  -12.7674  -21.4342    9.5416 C   0  0  0  0  0  0  0  0  0  0  0  0
  -11.7588  -22.8458    9.4996 Cl  0  0  0  0  0  0  0  0  0  0  0  0
  -14.1988  -22.4584    7.4296 Cl  0  0  0  0  0  0  0  0  0  0  0  0
  1  2  1  0
  2  3  2  0
  2  4  1  0
  4  5  1  0
  5  6  1  0
  5 13  2  0
  6  7  1  0
  7  8  2  0
  7 12  1  0
  8  9  1  0
  9 10  2  0
  9 15  1  0
 10 11  1  0
 10 14  1  0
 11 12  2  0
 12 13  1  0
 15 16  1  0
 16 17  2  0
 16 21  1  0
 17 18  1  0
 18 19  2  0
 19 20  1  0
 20 21  2  0
 20 23  1  0
 21 22  1  0
M  END
>  <Gold.Gold.Protein.RotatedWaterAtoms>  (476) 


>  <Gold.Id.Protein>  (476) 


>  <Gold.PLP.Chemscore.CHOScore>  (476) 
0.0000

>  <Gold.PLP.Chemscore.Hbond>  (476) 
1.0000

>  <Gold.PLP.Chemscore.Internal.Correction>  (476) 
0.0086

>  <Gold.PLP.Chemscore.Metal>  (476) 
0.0000

>  <Gold.PLP.Fitness>  (476) 
50.7139

>  <Gold.PLP.PLP>  (476) 
-48.1706

>  <Gold.PLP.ligand.clash>  (476) 
0.0000

>  <Gold.PLP.ligand.torsion>  (476) 
0.2327

>  <Gold.PLP.part.buried>  (476) 
-6.5205

>  <Gold.PLP.part.hbond>  (476) 
-2.0000

>  <Gold.PLP.part.metal>  (476) 
0.0000

>  <Gold.PLP.part.nonpolar>  (476) 
-39.3857

>  <Gold.PLP.part.repulsive>  (476) 
0.3298

>  <Gold.Protein.RotatedAtoms>  (476) 


>  <Gold.Protein.RotatedTorsions>  (476) 


>  <Gold.Protein.RotatedWaterAtoms>  (476) 


>  <Gold.Version>  (476) 
5.3.0

>  <PLP.Chemscore.CHOScore>  (476) 


>  <PLP.Chemscore.Hbond>  (476) 


>  <PLP.Chemscore.Internal.Correction>  (476) 


>  <PLP.Chemscore.Metal>  (476) 


>  <PLP.Fitness>  (476) 


>  <PLP.PLP>  (476) 


>  <PLP.ligand.clash>  (476) 


>  <PLP.ligand.torsion>  (476) 


>  <PLP.part.buried>  (476) 


>  <PLP.part.hbond>  (476) 


>  <PLP.part.metal>  (476) 


>  <PLP.part.nonpolar>  (476) 


>  <PLP.part.repulsive>  (476) 


>  <RMSD>  (476) 
0.439733510035

>  <Torsion>  (476) 
177.672185574

>  <TorsionO>  (476) 
4.31728583372

>  <TorsionR>  (476) 
173.35489974

>  <Version>  (476) 


>  <product>  (476) 
71|Compound_26|Compounds_3D_F|sdf|12|dock3|1

>  <rmsd>  (476) 
-1

$$$$
59|Compound_24|Compounds_3D_F|sdf|10|dock6|1
     RDKit          3D

 10  9  0  0  0  0  0  0  0  0999 V2000
   -9.8671  -14.3674   12.6644 O   0  0  0  0  0  0  0  0  0  0  0  0
   -8.7745  -14.5068   11.8987 C   0  0  0  0  0  0  0  0  0  0  0  0
   -8.8877  -14.7784   10.7262 O   0  0  0  0  0  0  0  0  0  0  0  0
   -7.4044  -14.3257   12.5002 C   0  0  0  0  0  0  0  0  0  0  0  0
   -6.6037  -15.6205   12.3447 C   0  0  0  0  0  0  0  0  0  0  0  0
   -6.6777  -13.1871   11.7818 C   0  0  0  0  0  0  0  0  0  0  0  0
   -7.5393  -12.0022   11.7476 N   0  0  0  0  0  0  0  0  0  0  0  0
   -7.0081  -10.7777   11.9364 C   0  0  0  0  0  0  0  0  0  0  0  0
   -5.8180  -10.6572   12.1339 O   0  0  0  0  0  0  0  0  0  0  0  0
   -7.9312   -9.5085   11.8998 B   0  0  0  0  0  0  0  0  0  0  0  0
  1  2  1  0
  2  3  2  0
  2  4  1  0
  4  5  1  0
  4  6  1  0
  6  7  1  0
  7  8  1  0
  8  9  2  0
  8 10  1  0
M  END
>  <Gold.Gold.Protein.RotatedWaterAtoms>  (477) 


>  <Gold.Id.Protein>  (477) 


>  <Gold.PLP.Chemscore.CHOScore>  (477) 
0.0000

>  <Gold.PLP.Chemscore.Hbond>  (477) 
1.0000

>  <Gold.PLP.Chemscore.Internal.Correction>  (477) 
0.0011

>  <Gold.PLP.Chemscore.Metal>  (477) 
0.0000

>  <Gold.PLP.Fitness>  (477) 
35.0542

>  <Gold.PLP.PLP>  (477) 
-32.4238

>  <Gold.PLP.ligand.clash>  (477) 
0.0000

>  <Gold.PLP.ligand.torsion>  (477) 
0.1853

>  <Gold.PLP.part.buried>  (477) 
-5.7125

>  <Gold.PLP.part.hbond>  (477) 
-3.4172

>  <Gold.PLP.part.metal>  (477) 
0.0000

>  <Gold.PLP.part.nonpolar>  (477) 
-23.9781

>  <Gold.PLP.part.repulsive>  (477) 
0.5940

>  <Gold.Protein.RotatedAtoms>  (477) 


>  <Gold.Protein.RotatedTorsions>  (477) 


>  <Gold.Protein.RotatedWaterAtoms>  (477) 


>  <Gold.Version>  (477) 
5.3.0

>  <PLP.Chemscore.CHOScore>  (477) 


>  <PLP.Chemscore.Hbond>  (477) 


>  <PLP.Chemscore.Internal.Correction>  (477) 


>  <PLP.Chemscore.Metal>  (477) 


>  <PLP.Fitness>  (477) 


>  <PLP.PLP>  (477) 


>  <PLP.ligand.clash>  (477) 


>  <PLP.ligand.torsion>  (477) 


>  <PLP.part.buried>  (477) 


>  <PLP.part.hbond>  (477) 


>  <PLP.part.metal>  (477) 


>  <PLP.part.nonpolar>  (477) 


>  <PLP.part.repulsive>  (477) 


>  <Version>  (477) 


$$$$
94|664022_40|Aromatic_carboxylic_acids_F|sdf|24|dock1|1
     RDKit          3D

 12 12  0  0  0  0  0  0  0  0999 V2000
   -8.2596  -17.1212   11.4595 C   0  0  0  0  0  0  0  0  0  0  0  0
   -7.6366  -15.8367   11.6688 N   0  0  0  0  0  0  0  0  0  0  0  0
   -8.3409  -14.6553   11.5719 C   0  0  0  0  0  0  0  0  0  0  0  0
   -9.5296  -14.5547   11.2978 O   0  0  0  0  0  0  0  0  0  0  0  0
   -7.5420  -13.4431   11.8503 C   0  0  0  0  0  0  0  0  0  0  0  0
   -8.1627  -12.1983   11.6738 C   0  0  0  0  0  0  0  0  0  0  0  0
   -7.4390  -11.0301   11.9055 C   0  0  0  0  0  0  0  0  0  0  0  0
   -6.1069  -11.0910   12.3103 C   0  0  0  0  0  0  0  0  0  0  0  0
   -5.4897  -12.3324   12.4853 C   0  0  0  0  0  0  0  0  0  0  0  0
   -6.2035  -13.5136   12.2549 C   0  0  0  0  0  0  0  0  0  0  0  0
   -5.3062  -15.1564   12.5638 Br  0  0  0  0  0  0  0  0  0  0  0  0
   -8.1960   -9.5005   11.6887 Cl  0  0  0  0  0  0  0  0  0  0  0  0
  1  2  1  0
  2  3  1  0
  3  4  2  0
  3  5  1  0
  5  6  2  0
  5 10  1  0
  6  7  1  0
  7  8  2  0
  7 12  1  0
  8  9  1  0
  9 10  2  0
 10 11  1  0
M  END
>  <Gold.Gold.Protein.RotatedWaterAtoms>  (478) 


>  <Gold.Id.Protein>  (478) 


>  <Gold.PLP.Chemscore.CHOScore>  (478) 
0.0000

>  <Gold.PLP.Chemscore.Hbond>  (478) 
0.4160

>  <Gold.PLP.Chemscore.Internal.Correction>  (478) 
0.0004

>  <Gold.PLP.Chemscore.Metal>  (478) 
0.0000

>  <Gold.PLP.Fitness>  (478) 
48.9046

>  <Gold.PLP.PLP>  (478) 
-47.6744

>  <Gold.PLP.ligand.clash>  (478) 
0.0000

>  <Gold.PLP.ligand.torsion>  (478) 
0.0091

>  <Gold.PLP.part.buried>  (478) 
-7.3578

>  <Gold.PLP.part.hbond>  (478) 
-0.5127

>  <Gold.PLP.part.metal>  (478) 
0.0000

>  <Gold.PLP.part.nonpolar>  (478) 
-40.3098

>  <Gold.PLP.part.repulsive>  (478) 
0.1684

>  <Gold.Protein.RotatedAtoms>  (478) 


>  <Gold.Protein.RotatedTorsions>  (478) 


>  <Gold.Protein.RotatedWaterAtoms>  (478) 


>  <Gold.Version>  (478) 
5.3.0

>  <PLP.Chemscore.CHOScore>  (478) 


>  <PLP.Chemscore.Hbond>  (478) 


>  <PLP.Chemscore.Internal.Correction>  (478) 


>  <PLP.Chemscore.Metal>  (478) 


>  <PLP.Fitness>  (478) 


>  <PLP.PLP>  (478) 


>  <PLP.ligand.clash>  (478) 


>  <PLP.ligand.torsion>  (478) 


>  <PLP.part.buried>  (478) 


>  <PLP.part.hbond>  (478) 


>  <PLP.part.metal>  (478) 


>  <PLP.part.nonpolar>  (478) 


>  <PLP.part.repulsive>  (478) 


>  <RMSD>  (478) 
0.30972197429

>  <Torsion>  (478) 
172.929186758

>  <TorsionO>  (478) 
24.4968065243

>  <TorsionR>  (478) 
162.574006718

>  <Version>  (478) 


>  <product>  (478) 
59|Compound_24|Compounds_3D_F|sdf|10|dock6|1

>  <rmsd>  (478) 
-1

$$$$
110|565385_49|Aromatic_carboxylic_acids_F|sdf|29|dock1|1
     RDKit          3D

 13 13  0  0  0  0  0  0  0  0999 V2000
  -10.1118  -17.9021   11.6320 C   0  0  0  0  0  0  0  0  0  0  0  0
   -9.7537  -16.5043   11.6546 N   0  0  0  0  0  0  0  0  0  0  0  0
   -8.4330  -16.1187   11.7930 C   0  0  0  0  0  0  0  0  0  0  0  0
   -7.5159  -16.9298   11.9008 O   0  0  0  0  0  0  0  0  0  0  0  0
   -8.1234  -14.6552   11.8105 C   0  0  0  0  0  0  0  0  0  0  0  0
   -9.0636  -13.6551   11.5375 C   0  0  0  0  0  0  0  0  0  0  0  0
   -8.6966  -12.3009   11.5726 C   0  0  0  0  0  0  0  0  0  0  0  0
   -7.3879  -11.9195   11.8809 C   0  0  0  0  0  0  0  0  0  0  0  0
   -6.4486  -12.9235   12.1551 C   0  0  0  0  0  0  0  0  0  0  0  0
   -6.8098  -14.2750   12.1207 C   0  0  0  0  0  0  0  0  0  0  0  0
   -4.6444  -12.5025   12.5849 Br  0  0  0  0  0  0  0  0  0  0  0  0
   -6.9476  -10.6242   11.9372 O   0  0  0  0  0  0  0  0  0  0  0  0
   -7.9020   -9.5910   11.7256 C   0  0  0  0  0  0  0  0  0  0  0  0
  1  2  1  0
  2  3  1  0
  3  4  2  0
  3  5  1  0
  5  6  2  0
  5 10  1  0
  6  7  1  0
  7  8  2  0
  8  9  1  0
  8 12  1  0
  9 10  2  0
  9 11  1  0
 12 13  1  0
M  END
>  <Gold.Gold.Protein.RotatedWaterAtoms>  (479) 


>  <Gold.Id.Protein>  (479) 


>  <Gold.PLP.Chemscore.CHOScore>  (479) 
0.0000

>  <Gold.PLP.Chemscore.Hbond>  (479) 
1.0000

>  <Gold.PLP.Chemscore.Internal.Correction>  (479) 
0.0000

>  <Gold.PLP.Chemscore.Metal>  (479) 
0.0000

>  <Gold.PLP.Fitness>  (479) 
43.9775

>  <Gold.PLP.PLP>  (479) 
-41.0517

>  <Gold.PLP.ligand.clash>  (479) 
0.0000

>  <Gold.PLP.ligand.torsion>  (479) 
0.0371

>  <Gold.PLP.part.buried>  (479) 
-3.7367

>  <Gold.PLP.part.hbond>  (479) 
-1.0000

>  <Gold.PLP.part.metal>  (479) 
0.0000

>  <Gold.PLP.part.nonpolar>  (479) 
-36.7483

>  <Gold.PLP.part.repulsive>  (479) 
0.4054

>  <Gold.Protein.RotatedAtoms>  (479) 


>  <Gold.Protein.RotatedTorsions>  (479) 


>  <Gold.Protein.RotatedWaterAtoms>  (479) 


>  <Gold.Version>  (479) 
5.3.0

>  <PLP.Chemscore.CHOScore>  (479) 


>  <PLP.Chemscore.Hbond>  (479) 


>  <PLP.Chemscore.Internal.Correction>  (479) 


>  <PLP.Chemscore.Metal>  (479) 


>  <PLP.Fitness>  (479) 


>  <PLP.PLP>  (479) 


>  <PLP.ligand.clash>  (479) 


>  <PLP.ligand.torsion>  (479) 


>  <PLP.part.buried>  (479) 


>  <PLP.part.hbond>  (479) 


>  <PLP.part.metal>  (479) 


>  <PLP.part.nonpolar>  (479) 


>  <PLP.part.repulsive>  (479) 


>  <RMSD>  (479) 
0.319376411377

>  <Torsion>  (479) 
169.460450784

>  <TorsionO>  (479) 
9.7963905484

>  <TorsionR>  (479) 
179.256841332

>  <Version>  (479) 


>  <product>  (479) 
59|Compound_24|Compounds_3D_F|sdf|10|dock6|1

>  <rmsd>  (479) 
-1

$$$$
128|137677_56|Aromatic_carboxylic_acids_F|sdf|33|dock1|1
     RDKit          3D

 11 11  0  0  0  0  0  0  0  0999 V2000
   -8.6116  -16.1544   11.8887 C   0  0  0  0  0  0  0  0  0  0  0  0
   -7.9978  -14.8484   11.9215 N   0  0  0  0  0  0  0  0  0  0  0  0
   -8.7778  -13.7008   11.8756 C   0  0  0  0  0  0  0  0  0  0  0  0
  -10.0002  -13.7896   11.8139 O   0  0  0  0  0  0  0  0  0  0  0  0
   -8.0808  -12.3609   11.9017 C   0  0  0  0  0  0  0  0  0  0  0  0
   -8.7916  -11.1851   11.5813 C   0  0  0  0  0  0  0  0  0  0  0  0
   -8.1781   -9.9267   11.5989 C   0  0  0  0  0  0  0  0  0  0  0  0
   -6.8391   -9.8089   11.9369 C   0  0  0  0  0  0  0  0  0  0  0  0
   -6.1124  -10.9502   12.2575 C   0  0  0  0  0  0  0  0  0  0  0  0
   -6.7171  -12.2196   12.2428 C   0  0  0  0  0  0  0  0  0  0  0  0
   -5.5419  -13.6455   12.7121 Br  0  0  0  0  0  0  0  0  0  0  0  0
  1  2  1  0
  2  3  1  0
  3  4  2  0
  3  5  1  0
  5  6  2  0
  5 10  1  0
  6  7  1  0
  7  8  2  0
  8  9  1  0
  9 10  2  0
 10 11  1  0
M  END
>  <Gold.Gold.Protein.RotatedWaterAtoms>  (480) 


>  <Gold.Id.Protein>  (480) 


>  <Gold.PLP.Chemscore.CHOScore>  (480) 
0.0000

>  <Gold.PLP.Chemscore.Hbond>  (480) 
1.0000

>  <Gold.PLP.Chemscore.Internal.Correction>  (480) 
0.0000

>  <Gold.PLP.Chemscore.Metal>  (480) 
0.0000

>  <Gold.PLP.Fitness>  (480) 
45.2899

>  <Gold.PLP.PLP>  (480) 
-42.4444

>  <Gold.PLP.ligand.clash>  (480) 
0.0000

>  <Gold.PLP.ligand.torsion>  (480) 
0.0772

>  <Gold.PLP.part.buried>  (480) 
-6.4690

>  <Gold.PLP.part.hbond>  (480) 
-0.6863

>  <Gold.PLP.part.metal>  (480) 
0.0000

>  <Gold.PLP.part.nonpolar>  (480) 
-34.8280

>  <Gold.PLP.part.repulsive>  (480) 
0.1963

>  <Gold.Protein.RotatedAtoms>  (480) 


>  <Gold.Protein.RotatedTorsions>  (480) 


>  <Gold.Protein.RotatedWaterAtoms>  (480) 


>  <Gold.Version>  (480) 
5.3.0

>  <PLP.Chemscore.CHOScore>  (480) 


>  <PLP.Chemscore.Hbond>  (480) 


>  <PLP.Chemscore.Internal.Correction>  (480) 


>  <PLP.Chemscore.Metal>  (480) 


>  <PLP.Fitness>  (480) 


>  <PLP.PLP>  (480) 


>  <PLP.ligand.clash>  (480) 


>  <PLP.ligand.torsion>  (480) 


>  <PLP.part.buried>  (480) 


>  <PLP.part.hbond>  (480) 


>  <PLP.part.metal>  (480) 


>  <PLP.part.nonpolar>  (480) 


>  <PLP.part.repulsive>  (480) 


>  <RMSD>  (480) 
0.428070490903

>  <Torsion>  (480) 
152.444048788

>  <TorsionO>  (480) 
39.0580871276

>  <TorsionR>  (480) 
168.497864085

>  <Version>  (480) 


>  <product>  (480) 
59|Compound_24|Compounds_3D_F|sdf|10|dock6|1

>  <rmsd>  (480) 
-1

$$$$
974|750794_1404|Aromatic_primary_amines_F|sdf|194|dock3|1
     RDKit          3D

 14 14  0  0  0  0  0  0  0  0999 V2000
  -13.6355  -18.1936    9.4145 C   0  0  0  0  0  0  0  0  0  0  0  0
  -13.2544  -19.4497   10.1732 C   0  0  0  0  0  0  0  0  0  0  0  0
  -11.8731  -19.3506   10.5383 O   0  0  0  0  0  0  0  0  0  0  0  0
  -11.6148  -18.5085   11.5823 C   0  0  0  0  0  0  0  0  0  0  0  0
  -12.3947  -18.2810   12.5004 O   0  0  0  0  0  0  0  0  0  0  0  0
  -10.3031  -17.8985   11.4902 C   0  0  0  0  0  0  0  0  0  0  0  0
   -9.1673  -18.4974   10.9931 C   0  0  0  0  0  0  0  0  0  0  0  0
   -8.1448  -17.6055   11.0758 O   0  0  0  0  0  0  0  0  0  0  0  0
   -8.7110  -16.4917   11.6237 C   0  0  0  0  0  0  0  0  0  0  0  0
   -9.9933  -16.6110   11.8915 N   0  0  0  0  0  0  0  0  0  0  0  0
   -7.9611  -15.3718   11.8549 N   0  0  0  0  0  0  0  0  0  0  0  0
   -8.5046  -14.1249   12.0676 C   0  0  0  0  0  0  0  0  0  0  0  0
   -9.6950  -13.8313   12.1035 O   0  0  0  0  0  0  0  0  0  0  0  0
   -7.4448  -13.0785   12.3021 C   0  0  0  0  0  0  0  0  0  0  0  0
  1  2  1  0
  2  3  1  0
  3  4  1  0
  4  5  2  0
  4  6  1  0
  6  7  2  0
  6 10  1  0
  7  8  1  0
  8  9  1  0
  9 10  2  0
  9 11  1  0
 11 12  1  0
 12 13  2  0
 12 14  1  0
M  END
>  <Gold.Gold.Protein.RotatedWaterAtoms>  (481) 


>  <Gold.Id.Protein>  (481) 


>  <Gold.PLP.Chemscore.CHOScore>  (481) 
0.0000

>  <Gold.PLP.Chemscore.Hbond>  (481) 
2.0000

>  <Gold.PLP.Chemscore.Internal.Correction>  (481) 
0.0053

>  <Gold.PLP.Chemscore.Metal>  (481) 
0.0000

>  <Gold.PLP.Fitness>  (481) 
36.8047

>  <Gold.PLP.PLP>  (481) 
-32.7996

>  <Gold.PLP.ligand.clash>  (481) 
0.0000

>  <Gold.PLP.ligand.torsion>  (481) 
1.0001

>  <Gold.PLP.part.buried>  (481) 
-6.5206

>  <Gold.PLP.part.hbond>  (481) 
-2.9156

>  <Gold.PLP.part.metal>  (481) 
0.0000

>  <Gold.PLP.part.nonpolar>  (481) 
-23.4080

>  <Gold.PLP.part.repulsive>  (481) 
0.3100

>  <Gold.Protein.RotatedAtoms>  (481) 


>  <Gold.Protein.RotatedTorsions>  (481) 


>  <Gold.Protein.RotatedWaterAtoms>  (481) 


>  <Gold.Version>  (481) 
5.3.0

>  <PLP.Chemscore.CHOScore>  (481) 


>  <PLP.Chemscore.Hbond>  (481) 


>  <PLP.Chemscore.Internal.Correction>  (481) 


>  <PLP.Chemscore.Metal>  (481) 


>  <PLP.Fitness>  (481) 


>  <PLP.PLP>  (481) 


>  <PLP.ligand.clash>  (481) 


>  <PLP.ligand.torsion>  (481) 


>  <PLP.part.buried>  (481) 


>  <PLP.part.hbond>  (481) 


>  <PLP.part.metal>  (481) 


>  <PLP.part.nonpolar>  (481) 


>  <PLP.part.repulsive>  (481) 


>  <RMSD>  (481) 
0.499949349045

>  <Torsion>  (481) 
159.973716791

>  <TorsionO>  (481) 
19.1052109979

>  <TorsionR>  (481) 
179.078927789

>  <Version>  (481) 


>  <product>  (481) 
59|Compound_24|Compounds_3D_F|sdf|10|dock6|1

>  <rmsd>  (481) 
-1

$$$$
1884|M3006_1781|Aromatic_primary_amines_F|sdf|361|dock3|1
     RDKit          3D

 31 34  0  0  0  0  0  0  0  0999 V2000
  -14.4210  -19.8971    8.7934 C   0  0  0  0  0  0  0  0  0  0  0  0
  -13.9762  -19.4927   10.1894 C   0  0  0  0  0  0  0  0  0  0  0  0
  -14.1356  -20.6409   11.1817 C   0  0  0  0  0  0  0  0  0  0  0  0
  -13.5197  -20.3070   12.5189 C   0  0  0  0  0  0  0  0  0  0  0  0
  -12.9307  -19.2724   12.7954 O   0  0  0  0  0  0  0  0  0  0  0  0
  -13.7110  -21.3451   13.3845 O   0  0  0  0  0  0  0  0  0  0  0  0
  -12.9425  -21.2698   14.5900 C   0  0  0  0  0  0  0  0  0  0  0  0
  -12.8849  -22.6189   15.2889 C   0  0  0  0  0  0  0  0  0  0  0  0
  -11.6552  -22.4172   16.1494 C   0  0  0  0  0  0  0  0  0  0  0  0
  -11.2420  -23.7410   16.7624 C   0  0  0  0  0  0  0  0  0  0  0  0
  -12.3024  -24.2223   17.5862 O   0  0  0  0  0  0  0  0  0  0  0  0
  -13.7888  -24.3384   16.9603 P   0  0  0  0  0  0  0  0  0  0  0  0
  -14.8775  -24.6795   17.9243 O   0  0  0  0  0  0  0  0  0  0  0  0
  -13.9839  -22.9641   16.1174 O   0  0  0  0  0  0  0  0  0  0  0  0
  -13.5991  -25.4435   15.8075 O   0  0  0  0  0  0  0  0  0  0  0  0
  -10.6922  -21.8161   15.2889 O   0  0  0  0  0  0  0  0  0  0  0  0
  -11.4338  -20.9664   14.3653 C   0  0  0  0  0  0  0  0  0  0  0  0
  -10.9052  -21.2017   13.0342 N   0  0  0  0  0  0  0  0  0  0  0  0
  -10.7814  -22.4114   12.4013 C   0  0  0  0  0  0  0  0  0  0  0  0
  -10.2640  -22.2918   11.1953 N   0  0  0  0  0  0  0  0  0  0  0  0
  -10.0274  -20.9476   11.0424 C   0  0  0  0  0  0  0  0  0  0  0  0
  -10.4203  -20.2487   12.1733 C   0  0  0  0  0  0  0  0  0  0  0  0
  -10.3338  -18.9216   12.3641 N   0  0  0  0  0  0  0  0  0  0  0  0
   -9.8057  -18.2730   11.3024 C   0  0  0  0  0  0  0  0  0  0  0  0
   -9.3808  -18.8370   10.1545 N   0  0  0  0  0  0  0  0  0  0  0  0
   -9.4895  -20.1691   10.0244 C   0  0  0  0  0  0  0  0  0  0  0  0
   -9.0330  -20.6622    8.8349 O   0  0  0  0  0  0  0  0  0  0  0  0
   -9.7222  -16.8901   11.4793 N   0  0  0  0  0  0  0  0  0  0  0  0
   -8.5796  -16.1798   11.7761 C   0  0  0  0  0  0  0  0  0  0  0  0
   -7.4445  -16.6221   11.9131 O   0  0  0  0  0  0  0  0  0  0  0  0
   -8.8524  -14.7024   11.8973 C   0  0  0  0  0  0  0  0  0  0  0  0
  1  2  1  0
  2  3  1  0
  3  4  1  0
  4  5  2  0
  4  6  1  0
  6  7  1  0
  7  8  1  0
  7 17  1  0
  8  9  1  0
  8 14  1  0
  9 10  1  0
  9 16  1  0
 10 11  1  0
 11 12  1  0
 12 13  2  0
 12 14  1  0
 12 15  1  0
 16 17  1  0
 17 18  1  0
 18 19  1  0
 18 22  1  0
 19 20  2  0
 20 21  1  0
 21 22  2  0
 21 26  1  0
 22 23  1  0
 23 24  2  0
 24 25  1  0
 24 28  1  0
 25 26  2  0
 26 27  1  0
 28 29  1  0
 29 30  2  0
 29 31  1  0
M  END
>  <Gold.Gold.Protein.RotatedWaterAtoms>  (482) 


>  <Gold.Id.Protein>  (482) 


>  <Gold.PLP.Chemscore.CHOScore>  (482) 
0.0000

>  <Gold.PLP.Chemscore.Hbond>  (482) 
1.2080

>  <Gold.PLP.Chemscore.Internal.Correction>  (482) 
0.1232

>  <Gold.PLP.Chemscore.Metal>  (482) 
0.0000

>  <Gold.PLP.Fitness>  (482) 
47.7145

>  <Gold.PLP.PLP>  (482) 
-46.0218

>  <Gold.PLP.ligand.clash>  (482) 
0.0000

>  <Gold.PLP.ligand.torsion>  (482) 
1.0272

>  <Gold.PLP.part.buried>  (482) 
-2.2958

>  <Gold.PLP.part.hbond>  (482) 
-4.0214

>  <Gold.PLP.part.metal>  (482) 
0.0000

>  <Gold.PLP.part.nonpolar>  (482) 
-41.4699

>  <Gold.PLP.part.repulsive>  (482) 
0.9524

>  <Gold.Protein.RotatedAtoms>  (482) 


>  <Gold.Protein.RotatedTorsions>  (482) 


>  <Gold.Protein.RotatedWaterAtoms>  (482) 


>  <Gold.Version>  (482) 
5.3.0

>  <PLP.Chemscore.CHOScore>  (482) 


>  <PLP.Chemscore.Hbond>  (482) 


>  <PLP.Chemscore.Internal.Correction>  (482) 


>  <PLP.Chemscore.Metal>  (482) 


>  <PLP.Fitness>  (482) 


>  <PLP.PLP>  (482) 


>  <PLP.ligand.clash>  (482) 


>  <PLP.ligand.torsion>  (482) 


>  <PLP.part.buried>  (482) 


>  <PLP.part.hbond>  (482) 


>  <PLP.part.metal>  (482) 


>  <PLP.part.nonpolar>  (482) 


>  <PLP.part.repulsive>  (482) 


>  <RMSD>  (482) 
0.291955871297

>  <Torsion>  (482) 
171.923704933

>  <TorsionO>  (482) 
6.03609353985

>  <TorsionR>  (482) 
177.959798473

>  <Version>  (482) 


>  <product>  (482) 
59|Compound_24|Compounds_3D_F|sdf|10|dock6|1

>  <rmsd>  (482) 
-1

$$$$
193|32168_281|Aromatic_primary_amines_F|sdf|39|dock6|1
     RDKit          3D

 23 25  0  0  0  0  0  0  0  0999 V2000
   -7.8439  -12.1461   11.8919 C   0  0  0  0  0  0  0  0  0  0  0  0
   -8.5691  -13.4472   11.6781 C   0  0  0  0  0  0  0  0  0  0  0  0
   -9.7886  -13.4981   11.5208 O   0  0  0  0  0  0  0  0  0  0  0  0
   -7.7264  -14.5390   11.7020 N   0  0  0  0  0  0  0  0  0  0  0  0
   -8.1889  -15.8197   11.5323 C   0  0  0  0  0  0  0  0  0  0  0  0
   -9.4747  -16.2039   11.8163 N   0  0  0  0  0  0  0  0  0  0  0  0
   -9.5964  -17.5375   11.5379 C   0  0  0  0  0  0  0  0  0  0  0  0
  -10.6643  -18.4283   11.6415 C   0  0  0  0  0  0  0  0  0  0  0  0
  -10.4051  -19.7586   11.2778 C   0  0  0  0  0  0  0  0  0  0  0  0
   -9.1530  -20.1507   10.7795 C   0  0  0  0  0  0  0  0  0  0  0  0
   -8.1017  -19.2294   10.6839 C   0  0  0  0  0  0  0  0  0  0  0  0
   -8.3349  -17.9032   11.0783 C   0  0  0  0  0  0  0  0  0  0  0  0
   -7.4773  -16.8281   11.0838 N   0  0  0  0  0  0  0  0  0  0  0  0
   -8.8530  -21.7658   10.2429 Cl  0  0  0  0  0  0  0  0  0  0  0  0
  -11.4669  -20.6323   11.3734 O   0  0  0  0  0  0  0  0  0  0  0  0
  -12.5262  -20.4408   10.5053 C   0  0  0  0  0  0  0  0  0  0  0  0
  -13.3188  -19.2846   10.5304 C   0  0  0  0  0  0  0  0  0  0  0  0
  -14.3665  -19.1344    9.6224 C   0  0  0  0  0  0  0  0  0  0  0  0
  -14.6219  -20.1279    8.6796 C   0  0  0  0  0  0  0  0  0  0  0  0
  -13.8238  -21.2756    8.6345 C   0  0  0  0  0  0  0  0  0  0  0  0
  -12.7674  -21.4342    9.5416 C   0  0  0  0  0  0  0  0  0  0  0  0
  -11.7588  -22.8458    9.4996 Cl  0  0  0  0  0  0  0  0  0  0  0  0
  -14.1988  -22.4584    7.4296 Cl  0  0  0  0  0  0  0  0  0  0  0  0
  1  2  1  0
  2  3  2  0
  2  4  1  0
  4  5  1  0
  5  6  1  0
  5 13  2  0
  6  7  1  0
  7  8  2  0
  7 12  1  0
  8  9  1  0
  9 10  2  0
  9 15  1  0
 10 11  1  0
 10 14  1  0
 11 12  2  0
 12 13  1  0
 15 16  1  0
 16 17  2  0
 16 21  1  0
 17 18  1  0
 18 19  2  0
 19 20  1  0
 20 21  2  0
 20 23  1  0
 21 22  1  0
M  END
>  <Gold.Gold.Protein.RotatedWaterAtoms>  (483) 


>  <Gold.Id.Protein>  (483) 


>  <Gold.PLP.Chemscore.CHOScore>  (483) 
0.0000

>  <Gold.PLP.Chemscore.Hbond>  (483) 
1.0000

>  <Gold.PLP.Chemscore.Internal.Correction>  (483) 
0.0086

>  <Gold.PLP.Chemscore.Metal>  (483) 
0.0000

>  <Gold.PLP.Fitness>  (483) 
50.7139

>  <Gold.PLP.PLP>  (483) 
-48.1706

>  <Gold.PLP.ligand.clash>  (483) 
0.0000

>  <Gold.PLP.ligand.torsion>  (483) 
0.2327

>  <Gold.PLP.part.buried>  (483) 
-6.5205

>  <Gold.PLP.part.hbond>  (483) 
-2.0000

>  <Gold.PLP.part.metal>  (483) 
0.0000

>  <Gold.PLP.part.nonpolar>  (483) 
-39.3857

>  <Gold.PLP.part.repulsive>  (483) 
0.3298

>  <Gold.Protein.RotatedAtoms>  (483) 


>  <Gold.Protein.RotatedTorsions>  (483) 


>  <Gold.Protein.RotatedWaterAtoms>  (483) 


>  <Gold.Version>  (483) 
5.3.0

>  <PLP.Chemscore.CHOScore>  (483) 


>  <PLP.Chemscore.Hbond>  (483) 


>  <PLP.Chemscore.Internal.Correction>  (483) 


>  <PLP.Chemscore.Metal>  (483) 


>  <PLP.Fitness>  (483) 


>  <PLP.PLP>  (483) 


>  <PLP.ligand.clash>  (483) 


>  <PLP.ligand.torsion>  (483) 


>  <PLP.part.buried>  (483) 


>  <PLP.part.hbond>  (483) 


>  <PLP.part.metal>  (483) 


>  <PLP.part.nonpolar>  (483) 


>  <PLP.part.repulsive>  (483) 


>  <RMSD>  (483) 
0.439733510035

>  <Torsion>  (483) 
177.672185574

>  <TorsionO>  (483) 
4.31728583372

>  <TorsionR>  (483) 
173.35489974

>  <Version>  (483) 


>  <product>  (483) 
59|Compound_24|Compounds_3D_F|sdf|10|dock6|1

>  <rmsd>  (483) 
-1

$$$$
33|Compound_19|Compounds_3D_F|sdf|6|dock6|1
     RDKit          3D

 12 11  0  0  0  0  0  0  0  0999 V2000
  -16.7027  -22.5925    7.3765 O   0  0  0  0  0  0  0  0  0  0  0  0
  -15.3739  -22.7168    7.5127 C   0  0  0  0  0  0  0  0  0  0  0  0
  -14.8627  -23.8120    7.4873 O   0  0  0  0  0  0  0  0  0  0  0  0
  -14.5173  -21.4907    7.6985 C   0  0  0  0  0  0  0  0  0  0  0  0
  -14.5901  -21.0496    9.0937 N   0  0  0  0  0  0  0  0  0  0  0  0
  -14.1194  -19.8365    9.4432 C   0  0  0  0  0  0  0  0  0  0  0  0
  -13.6352  -19.1093    8.6016 O   0  0  0  0  0  0  0  0  0  0  0  0
  -14.1947  -19.3830   10.8782 C   0  0  0  0  0  0  0  0  0  0  0  0
  -13.3759  -20.2656   11.7132 N   0  0  0  0  0  0  0  0  0  0  0  0
  -12.4041  -19.7479   12.4898 C   0  0  0  0  0  0  0  0  0  0  0  0
  -12.2068  -18.5516   12.4980 O   0  0  0  0  0  0  0  0  0  0  0  0
  -11.5263  -20.6939   13.3843 B   0  0  0  0  0  0  0  0  0  0  0  0
  1  2  1  0
  2  3  2  0
  2  4  1  0
  4  5  1  0
  5  6  1  0
  6  7  2  0
  6  8  1  0
  8  9  1  0
  9 10  1  0
 10 11  2  0
 10 12  1  0
M  END
>  <Gold.Gold.Protein.RotatedWaterAtoms>  (484) 


>  <Gold.Id.Protein>  (484) 


>  <Gold.PLP.Chemscore.CHOScore>  (484) 
0.0000

>  <Gold.PLP.Chemscore.Hbond>  (484) 
3.0000

>  <Gold.PLP.Chemscore.Internal.Correction>  (484) 
0.0064

>  <Gold.PLP.Chemscore.Metal>  (484) 
0.0000

>  <Gold.PLP.Fitness>  (484) 
36.6057

>  <Gold.PLP.PLP>  (484) 
-28.3342

>  <Gold.PLP.ligand.clash>  (484) 
0.0000

>  <Gold.PLP.ligand.torsion>  (484) 
0.3674

>  <Gold.PLP.part.buried>  (484) 
-5.0584

>  <Gold.PLP.part.hbond>  (484) 
-4.8159

>  <Gold.PLP.part.metal>  (484) 
0.0000

>  <Gold.PLP.part.nonpolar>  (484) 
-19.3555

>  <Gold.PLP.part.repulsive>  (484) 
0.2507

>  <Gold.Protein.RotatedAtoms>  (484) 


>  <Gold.Protein.RotatedTorsions>  (484) 


>  <Gold.Protein.RotatedWaterAtoms>  (484) 


>  <Gold.Version>  (484) 
5.3.0

>  <PLP.Chemscore.CHOScore>  (484) 


>  <PLP.Chemscore.Hbond>  (484) 


>  <PLP.Chemscore.Internal.Correction>  (484) 


>  <PLP.Chemscore.Metal>  (484) 


>  <PLP.Fitness>  (484) 


>  <PLP.PLP>  (484) 


>  <PLP.ligand.clash>  (484) 


>  <PLP.ligand.torsion>  (484) 


>  <PLP.part.buried>  (484) 


>  <PLP.part.hbond>  (484) 


>  <PLP.part.metal>  (484) 


>  <PLP.part.nonpolar>  (484) 


>  <PLP.part.repulsive>  (484) 


>  <Version>  (484) 


$$$$
94|664022_40|Aromatic_carboxylic_acids_F|sdf|24|dock1|1
     RDKit          3D

 12 12  0  0  0  0  0  0  0  0999 V2000
   -8.2596  -17.1212   11.4595 C   0  0  0  0  0  0  0  0  0  0  0  0
   -7.6366  -15.8367   11.6688 N   0  0  0  0  0  0  0  0  0  0  0  0
   -8.3409  -14.6553   11.5719 C   0  0  0  0  0  0  0  0  0  0  0  0
   -9.5296  -14.5547   11.2978 O   0  0  0  0  0  0  0  0  0  0  0  0
   -7.5420  -13.4431   11.8503 C   0  0  0  0  0  0  0  0  0  0  0  0
   -8.1627  -12.1983   11.6738 C   0  0  0  0  0  0  0  0  0  0  0  0
   -7.4390  -11.0301   11.9055 C   0  0  0  0  0  0  0  0  0  0  0  0
   -6.1069  -11.0910   12.3103 C   0  0  0  0  0  0  0  0  0  0  0  0
   -5.4897  -12.3324   12.4853 C   0  0  0  0  0  0  0  0  0  0  0  0
   -6.2035  -13.5136   12.2549 C   0  0  0  0  0  0  0  0  0  0  0  0
   -5.3062  -15.1564   12.5638 Br  0  0  0  0  0  0  0  0  0  0  0  0
   -8.1960   -9.5005   11.6887 Cl  0  0  0  0  0  0  0  0  0  0  0  0
  1  2  1  0
  2  3  1  0
  3  4  2  0
  3  5  1  0
  5  6  2  0
  5 10  1  0
  6  7  1  0
  7  8  2  0
  7 12  1  0
  8  9  1  0
  9 10  2  0
 10 11  1  0
M  END
>  <Gold.Gold.Protein.RotatedWaterAtoms>  (485) 


>  <Gold.Id.Protein>  (485) 


>  <Gold.PLP.Chemscore.CHOScore>  (485) 
0.0000

>  <Gold.PLP.Chemscore.Hbond>  (485) 
0.4160

>  <Gold.PLP.Chemscore.Internal.Correction>  (485) 
0.0004

>  <Gold.PLP.Chemscore.Metal>  (485) 
0.0000

>  <Gold.PLP.Fitness>  (485) 
48.9046

>  <Gold.PLP.PLP>  (485) 
-47.6744

>  <Gold.PLP.ligand.clash>  (485) 
0.0000

>  <Gold.PLP.ligand.torsion>  (485) 
0.0091

>  <Gold.PLP.part.buried>  (485) 
-7.3578

>  <Gold.PLP.part.hbond>  (485) 
-0.5127

>  <Gold.PLP.part.metal>  (485) 
0.0000

>  <Gold.PLP.part.nonpolar>  (485) 
-40.3098

>  <Gold.PLP.part.repulsive>  (485) 
0.1684

>  <Gold.Protein.RotatedAtoms>  (485) 


>  <Gold.Protein.RotatedTorsions>  (485) 


>  <Gold.Protein.RotatedWaterAtoms>  (485) 


>  <Gold.Version>  (485) 
5.3.0

>  <PLP.Chemscore.CHOScore>  (485) 


>  <PLP.Chemscore.Hbond>  (485) 


>  <PLP.Chemscore.Internal.Correction>  (485) 


>  <PLP.Chemscore.Metal>  (485) 


>  <PLP.Fitness>  (485) 


>  <PLP.PLP>  (485) 


>  <PLP.ligand.clash>  (485) 


>  <PLP.ligand.torsion>  (485) 


>  <PLP.part.buried>  (485) 


>  <PLP.part.hbond>  (485) 


>  <PLP.part.metal>  (485) 


>  <PLP.part.nonpolar>  (485) 


>  <PLP.part.repulsive>  (485) 


>  <RMSD>  (485) 
0.30972197429

>  <Torsion>  (485) 
172.929186758

>  <TorsionO>  (485) 
24.4968065243

>  <TorsionR>  (485) 
162.574006718

>  <Version>  (485) 


>  <product>  (485) 
33|Compound_19|Compounds_3D_F|sdf|6|dock6|1

>  <rmsd>  (485) 
-1

$$$$
110|565385_49|Aromatic_carboxylic_acids_F|sdf|29|dock1|1
     RDKit          3D

 13 13  0  0  0  0  0  0  0  0999 V2000
  -10.1118  -17.9021   11.6320 C   0  0  0  0  0  0  0  0  0  0  0  0
   -9.7537  -16.5043   11.6546 N   0  0  0  0  0  0  0  0  0  0  0  0
   -8.4330  -16.1187   11.7930 C   0  0  0  0  0  0  0  0  0  0  0  0
   -7.5159  -16.9298   11.9008 O   0  0  0  0  0  0  0  0  0  0  0  0
   -8.1234  -14.6552   11.8105 C   0  0  0  0  0  0  0  0  0  0  0  0
   -9.0636  -13.6551   11.5375 C   0  0  0  0  0  0  0  0  0  0  0  0
   -8.6966  -12.3009   11.5726 C   0  0  0  0  0  0  0  0  0  0  0  0
   -7.3879  -11.9195   11.8809 C   0  0  0  0  0  0  0  0  0  0  0  0
   -6.4486  -12.9235   12.1551 C   0  0  0  0  0  0  0  0  0  0  0  0
   -6.8098  -14.2750   12.1207 C   0  0  0  0  0  0  0  0  0  0  0  0
   -4.6444  -12.5025   12.5849 Br  0  0  0  0  0  0  0  0  0  0  0  0
   -6.9476  -10.6242   11.9372 O   0  0  0  0  0  0  0  0  0  0  0  0
   -7.9020   -9.5910   11.7256 C   0  0  0  0  0  0  0  0  0  0  0  0
  1  2  1  0
  2  3  1  0
  3  4  2  0
  3  5  1  0
  5  6  2  0
  5 10  1  0
  6  7  1  0
  7  8  2  0
  8  9  1  0
  8 12  1  0
  9 10  2  0
  9 11  1  0
 12 13  1  0
M  END
>  <Gold.Gold.Protein.RotatedWaterAtoms>  (486) 


>  <Gold.Id.Protein>  (486) 


>  <Gold.PLP.Chemscore.CHOScore>  (486) 
0.0000

>  <Gold.PLP.Chemscore.Hbond>  (486) 
1.0000

>  <Gold.PLP.Chemscore.Internal.Correction>  (486) 
0.0000

>  <Gold.PLP.Chemscore.Metal>  (486) 
0.0000

>  <Gold.PLP.Fitness>  (486) 
43.9775

>  <Gold.PLP.PLP>  (486) 
-41.0517

>  <Gold.PLP.ligand.clash>  (486) 
0.0000

>  <Gold.PLP.ligand.torsion>  (486) 
0.0371

>  <Gold.PLP.part.buried>  (486) 
-3.7367

>  <Gold.PLP.part.hbond>  (486) 
-1.0000

>  <Gold.PLP.part.metal>  (486) 
0.0000

>  <Gold.PLP.part.nonpolar>  (486) 
-36.7483

>  <Gold.PLP.part.repulsive>  (486) 
0.4054

>  <Gold.Protein.RotatedAtoms>  (486) 


>  <Gold.Protein.RotatedTorsions>  (486) 


>  <Gold.Protein.RotatedWaterAtoms>  (486) 


>  <Gold.Version>  (486) 
5.3.0

>  <PLP.Chemscore.CHOScore>  (486) 


>  <PLP.Chemscore.Hbond>  (486) 


>  <PLP.Chemscore.Internal.Correction>  (486) 


>  <PLP.Chemscore.Metal>  (486) 


>  <PLP.Fitness>  (486) 


>  <PLP.PLP>  (486) 


>  <PLP.ligand.clash>  (486) 


>  <PLP.ligand.torsion>  (486) 


>  <PLP.part.buried>  (486) 


>  <PLP.part.hbond>  (486) 


>  <PLP.part.metal>  (486) 


>  <PLP.part.nonpolar>  (486) 


>  <PLP.part.repulsive>  (486) 


>  <RMSD>  (486) 
0.319376411377

>  <Torsion>  (486) 
169.460450784

>  <TorsionO>  (486) 
9.7963905484

>  <TorsionR>  (486) 
179.256841332

>  <Version>  (486) 


>  <product>  (486) 
33|Compound_19|Compounds_3D_F|sdf|6|dock6|1

>  <rmsd>  (486) 
-1

$$$$
128|137677_56|Aromatic_carboxylic_acids_F|sdf|33|dock1|1
     RDKit          3D

 11 11  0  0  0  0  0  0  0  0999 V2000
   -8.6116  -16.1544   11.8887 C   0  0  0  0  0  0  0  0  0  0  0  0
   -7.9978  -14.8484   11.9215 N   0  0  0  0  0  0  0  0  0  0  0  0
   -8.7778  -13.7008   11.8756 C   0  0  0  0  0  0  0  0  0  0  0  0
  -10.0002  -13.7896   11.8139 O   0  0  0  0  0  0  0  0  0  0  0  0
   -8.0808  -12.3609   11.9017 C   0  0  0  0  0  0  0  0  0  0  0  0
   -8.7916  -11.1851   11.5813 C   0  0  0  0  0  0  0  0  0  0  0  0
   -8.1781   -9.9267   11.5989 C   0  0  0  0  0  0  0  0  0  0  0  0
   -6.8391   -9.8089   11.9369 C   0  0  0  0  0  0  0  0  0  0  0  0
   -6.1124  -10.9502   12.2575 C   0  0  0  0  0  0  0  0  0  0  0  0
   -6.7171  -12.2196   12.2428 C   0  0  0  0  0  0  0  0  0  0  0  0
   -5.5419  -13.6455   12.7121 Br  0  0  0  0  0  0  0  0  0  0  0  0
  1  2  1  0
  2  3  1  0
  3  4  2  0
  3  5  1  0
  5  6  2  0
  5 10  1  0
  6  7  1  0
  7  8  2  0
  8  9  1  0
  9 10  2  0
 10 11  1  0
M  END
>  <Gold.Gold.Protein.RotatedWaterAtoms>  (487) 


>  <Gold.Id.Protein>  (487) 


>  <Gold.PLP.Chemscore.CHOScore>  (487) 
0.0000

>  <Gold.PLP.Chemscore.Hbond>  (487) 
1.0000

>  <Gold.PLP.Chemscore.Internal.Correction>  (487) 
0.0000

>  <Gold.PLP.Chemscore.Metal>  (487) 
0.0000

>  <Gold.PLP.Fitness>  (487) 
45.2899

>  <Gold.PLP.PLP>  (487) 
-42.4444

>  <Gold.PLP.ligand.clash>  (487) 
0.0000

>  <Gold.PLP.ligand.torsion>  (487) 
0.0772

>  <Gold.PLP.part.buried>  (487) 
-6.4690

>  <Gold.PLP.part.hbond>  (487) 
-0.6863

>  <Gold.PLP.part.metal>  (487) 
0.0000

>  <Gold.PLP.part.nonpolar>  (487) 
-34.8280

>  <Gold.PLP.part.repulsive>  (487) 
0.1963

>  <Gold.Protein.RotatedAtoms>  (487) 


>  <Gold.Protein.RotatedTorsions>  (487) 


>  <Gold.Protein.RotatedWaterAtoms>  (487) 


>  <Gold.Version>  (487) 
5.3.0

>  <PLP.Chemscore.CHOScore>  (487) 


>  <PLP.Chemscore.Hbond>  (487) 


>  <PLP.Chemscore.Internal.Correction>  (487) 


>  <PLP.Chemscore.Metal>  (487) 


>  <PLP.Fitness>  (487) 


>  <PLP.PLP>  (487) 


>  <PLP.ligand.clash>  (487) 


>  <PLP.ligand.torsion>  (487) 


>  <PLP.part.buried>  (487) 


>  <PLP.part.hbond>  (487) 


>  <PLP.part.metal>  (487) 


>  <PLP.part.nonpolar>  (487) 


>  <PLP.part.repulsive>  (487) 


>  <RMSD>  (487) 
0.428070490903

>  <Torsion>  (487) 
152.444048788

>  <TorsionO>  (487) 
39.0580871276

>  <TorsionR>  (487) 
168.497864085

>  <Version>  (487) 


>  <product>  (487) 
33|Compound_19|Compounds_3D_F|sdf|6|dock6|1

>  <rmsd>  (487) 
-1

$$$$
974|750794_1404|Aromatic_primary_amines_F|sdf|194|dock3|1
     RDKit          3D

 14 14  0  0  0  0  0  0  0  0999 V2000
  -13.6355  -18.1936    9.4145 C   0  0  0  0  0  0  0  0  0  0  0  0
  -13.2544  -19.4497   10.1732 C   0  0  0  0  0  0  0  0  0  0  0  0
  -11.8731  -19.3506   10.5383 O   0  0  0  0  0  0  0  0  0  0  0  0
  -11.6148  -18.5085   11.5823 C   0  0  0  0  0  0  0  0  0  0  0  0
  -12.3947  -18.2810   12.5004 O   0  0  0  0  0  0  0  0  0  0  0  0
  -10.3031  -17.8985   11.4902 C   0  0  0  0  0  0  0  0  0  0  0  0
   -9.1673  -18.4974   10.9931 C   0  0  0  0  0  0  0  0  0  0  0  0
   -8.1448  -17.6055   11.0758 O   0  0  0  0  0  0  0  0  0  0  0  0
   -8.7110  -16.4917   11.6237 C   0  0  0  0  0  0  0  0  0  0  0  0
   -9.9933  -16.6110   11.8915 N   0  0  0  0  0  0  0  0  0  0  0  0
   -7.9611  -15.3718   11.8549 N   0  0  0  0  0  0  0  0  0  0  0  0
   -8.5046  -14.1249   12.0676 C   0  0  0  0  0  0  0  0  0  0  0  0
   -9.6950  -13.8313   12.1035 O   0  0  0  0  0  0  0  0  0  0  0  0
   -7.4448  -13.0785   12.3021 C   0  0  0  0  0  0  0  0  0  0  0  0
  1  2  1  0
  2  3  1  0
  3  4  1  0
  4  5  2  0
  4  6  1  0
  6  7  2  0
  6 10  1  0
  7  8  1  0
  8  9  1  0
  9 10  2  0
  9 11  1  0
 11 12  1  0
 12 13  2  0
 12 14  1  0
M  END
>  <Gold.Gold.Protein.RotatedWaterAtoms>  (488) 


>  <Gold.Id.Protein>  (488) 


>  <Gold.PLP.Chemscore.CHOScore>  (488) 
0.0000

>  <Gold.PLP.Chemscore.Hbond>  (488) 
2.0000

>  <Gold.PLP.Chemscore.Internal.Correction>  (488) 
0.0053

>  <Gold.PLP.Chemscore.Metal>  (488) 
0.0000

>  <Gold.PLP.Fitness>  (488) 
36.8047

>  <Gold.PLP.PLP>  (488) 
-32.7996

>  <Gold.PLP.ligand.clash>  (488) 
0.0000

>  <Gold.PLP.ligand.torsion>  (488) 
1.0001

>  <Gold.PLP.part.buried>  (488) 
-6.5206

>  <Gold.PLP.part.hbond>  (488) 
-2.9156

>  <Gold.PLP.part.metal>  (488) 
0.0000

>  <Gold.PLP.part.nonpolar>  (488) 
-23.4080

>  <Gold.PLP.part.repulsive>  (488) 
0.3100

>  <Gold.Protein.RotatedAtoms>  (488) 


>  <Gold.Protein.RotatedTorsions>  (488) 


>  <Gold.Protein.RotatedWaterAtoms>  (488) 


>  <Gold.Version>  (488) 
5.3.0

>  <PLP.Chemscore.CHOScore>  (488) 


>  <PLP.Chemscore.Hbond>  (488) 


>  <PLP.Chemscore.Internal.Correction>  (488) 


>  <PLP.Chemscore.Metal>  (488) 


>  <PLP.Fitness>  (488) 


>  <PLP.PLP>  (488) 


>  <PLP.ligand.clash>  (488) 


>  <PLP.ligand.torsion>  (488) 


>  <PLP.part.buried>  (488) 


>  <PLP.part.hbond>  (488) 


>  <PLP.part.metal>  (488) 


>  <PLP.part.nonpolar>  (488) 


>  <PLP.part.repulsive>  (488) 


>  <RMSD>  (488) 
0.499949349045

>  <Torsion>  (488) 
159.973716791

>  <TorsionO>  (488) 
19.1052109979

>  <TorsionR>  (488) 
179.078927789

>  <Version>  (488) 


>  <product>  (488) 
33|Compound_19|Compounds_3D_F|sdf|6|dock6|1

>  <rmsd>  (488) 
-1

$$$$
1884|M3006_1781|Aromatic_primary_amines_F|sdf|361|dock3|1
     RDKit          3D

 31 34  0  0  0  0  0  0  0  0999 V2000
  -14.4210  -19.8971    8.7934 C   0  0  0  0  0  0  0  0  0  0  0  0
  -13.9762  -19.4927   10.1894 C   0  0  0  0  0  0  0  0  0  0  0  0
  -14.1356  -20.6409   11.1817 C   0  0  0  0  0  0  0  0  0  0  0  0
  -13.5197  -20.3070   12.5189 C   0  0  0  0  0  0  0  0  0  0  0  0
  -12.9307  -19.2724   12.7954 O   0  0  0  0  0  0  0  0  0  0  0  0
  -13.7110  -21.3451   13.3845 O   0  0  0  0  0  0  0  0  0  0  0  0
  -12.9425  -21.2698   14.5900 C   0  0  0  0  0  0  0  0  0  0  0  0
  -12.8849  -22.6189   15.2889 C   0  0  0  0  0  0  0  0  0  0  0  0
  -11.6552  -22.4172   16.1494 C   0  0  0  0  0  0  0  0  0  0  0  0
  -11.2420  -23.7410   16.7624 C   0  0  0  0  0  0  0  0  0  0  0  0
  -12.3024  -24.2223   17.5862 O   0  0  0  0  0  0  0  0  0  0  0  0
  -13.7888  -24.3384   16.9603 P   0  0  0  0  0  0  0  0  0  0  0  0
  -14.8775  -24.6795   17.9243 O   0  0  0  0  0  0  0  0  0  0  0  0
  -13.9839  -22.9641   16.1174 O   0  0  0  0  0  0  0  0  0  0  0  0
  -13.5991  -25.4435   15.8075 O   0  0  0  0  0  0  0  0  0  0  0  0
  -10.6922  -21.8161   15.2889 O   0  0  0  0  0  0  0  0  0  0  0  0
  -11.4338  -20.9664   14.3653 C   0  0  0  0  0  0  0  0  0  0  0  0
  -10.9052  -21.2017   13.0342 N   0  0  0  0  0  0  0  0  0  0  0  0
  -10.7814  -22.4114   12.4013 C   0  0  0  0  0  0  0  0  0  0  0  0
  -10.2640  -22.2918   11.1953 N   0  0  0  0  0  0  0  0  0  0  0  0
  -10.0274  -20.9476   11.0424 C   0  0  0  0  0  0  0  0  0  0  0  0
  -10.4203  -20.2487   12.1733 C   0  0  0  0  0  0  0  0  0  0  0  0
  -10.3338  -18.9216   12.3641 N   0  0  0  0  0  0  0  0  0  0  0  0
   -9.8057  -18.2730   11.3024 C   0  0  0  0  0  0  0  0  0  0  0  0
   -9.3808  -18.8370   10.1545 N   0  0  0  0  0  0  0  0  0  0  0  0
   -9.4895  -20.1691   10.0244 C   0  0  0  0  0  0  0  0  0  0  0  0
   -9.0330  -20.6622    8.8349 O   0  0  0  0  0  0  0  0  0  0  0  0
   -9.7222  -16.8901   11.4793 N   0  0  0  0  0  0  0  0  0  0  0  0
   -8.5796  -16.1798   11.7761 C   0  0  0  0  0  0  0  0  0  0  0  0
   -7.4445  -16.6221   11.9131 O   0  0  0  0  0  0  0  0  0  0  0  0
   -8.8524  -14.7024   11.8973 C   0  0  0  0  0  0  0  0  0  0  0  0
  1  2  1  0
  2  3  1  0
  3  4  1  0
  4  5  2  0
  4  6  1  0
  6  7  1  0
  7  8  1  0
  7 17  1  0
  8  9  1  0
  8 14  1  0
  9 10  1  0
  9 16  1  0
 10 11  1  0
 11 12  1  0
 12 13  2  0
 12 14  1  0
 12 15  1  0
 16 17  1  0
 17 18  1  0
 18 19  1  0
 18 22  1  0
 19 20  2  0
 20 21  1  0
 21 22  2  0
 21 26  1  0
 22 23  1  0
 23 24  2  0
 24 25  1  0
 24 28  1  0
 25 26  2  0
 26 27  1  0
 28 29  1  0
 29 30  2  0
 29 31  1  0
M  END
>  <Gold.Gold.Protein.RotatedWaterAtoms>  (489) 


>  <Gold.Id.Protein>  (489) 


>  <Gold.PLP.Chemscore.CHOScore>  (489) 
0.0000

>  <Gold.PLP.Chemscore.Hbond>  (489) 
1.2080

>  <Gold.PLP.Chemscore.Internal.Correction>  (489) 
0.1232

>  <Gold.PLP.Chemscore.Metal>  (489) 
0.0000

>  <Gold.PLP.Fitness>  (489) 
47.7145

>  <Gold.PLP.PLP>  (489) 
-46.0218

>  <Gold.PLP.ligand.clash>  (489) 
0.0000

>  <Gold.PLP.ligand.torsion>  (489) 
1.0272

>  <Gold.PLP.part.buried>  (489) 
-2.2958

>  <Gold.PLP.part.hbond>  (489) 
-4.0214

>  <Gold.PLP.part.metal>  (489) 
0.0000

>  <Gold.PLP.part.nonpolar>  (489) 
-41.4699

>  <Gold.PLP.part.repulsive>  (489) 
0.9524

>  <Gold.Protein.RotatedAtoms>  (489) 


>  <Gold.Protein.RotatedTorsions>  (489) 


>  <Gold.Protein.RotatedWaterAtoms>  (489) 


>  <Gold.Version>  (489) 
5.3.0

>  <PLP.Chemscore.CHOScore>  (489) 


>  <PLP.Chemscore.Hbond>  (489) 


>  <PLP.Chemscore.Internal.Correction>  (489) 


>  <PLP.Chemscore.Metal>  (489) 


>  <PLP.Fitness>  (489) 


>  <PLP.PLP>  (489) 


>  <PLP.ligand.clash>  (489) 


>  <PLP.ligand.torsion>  (489) 


>  <PLP.part.buried>  (489) 


>  <PLP.part.hbond>  (489) 


>  <PLP.part.metal>  (489) 


>  <PLP.part.nonpolar>  (489) 


>  <PLP.part.repulsive>  (489) 


>  <RMSD>  (489) 
0.291955871297

>  <Torsion>  (489) 
171.923704933

>  <TorsionO>  (489) 
6.03609353985

>  <TorsionR>  (489) 
177.959798473

>  <Version>  (489) 


>  <product>  (489) 
33|Compound_19|Compounds_3D_F|sdf|6|dock6|1

>  <rmsd>  (489) 
-1

$$$$
193|32168_281|Aromatic_primary_amines_F|sdf|39|dock6|1
     RDKit          3D

 23 25  0  0  0  0  0  0  0  0999 V2000
   -7.8439  -12.1461   11.8919 C   0  0  0  0  0  0  0  0  0  0  0  0
   -8.5691  -13.4472   11.6781 C   0  0  0  0  0  0  0  0  0  0  0  0
   -9.7886  -13.4981   11.5208 O   0  0  0  0  0  0  0  0  0  0  0  0
   -7.7264  -14.5390   11.7020 N   0  0  0  0  0  0  0  0  0  0  0  0
   -8.1889  -15.8197   11.5323 C   0  0  0  0  0  0  0  0  0  0  0  0
   -9.4747  -16.2039   11.8163 N   0  0  0  0  0  0  0  0  0  0  0  0
   -9.5964  -17.5375   11.5379 C   0  0  0  0  0  0  0  0  0  0  0  0
  -10.6643  -18.4283   11.6415 C   0  0  0  0  0  0  0  0  0  0  0  0
  -10.4051  -19.7586   11.2778 C   0  0  0  0  0  0  0  0  0  0  0  0
   -9.1530  -20.1507   10.7795 C   0  0  0  0  0  0  0  0  0  0  0  0
   -8.1017  -19.2294   10.6839 C   0  0  0  0  0  0  0  0  0  0  0  0
   -8.3349  -17.9032   11.0783 C   0  0  0  0  0  0  0  0  0  0  0  0
   -7.4773  -16.8281   11.0838 N   0  0  0  0  0  0  0  0  0  0  0  0
   -8.8530  -21.7658   10.2429 Cl  0  0  0  0  0  0  0  0  0  0  0  0
  -11.4669  -20.6323   11.3734 O   0  0  0  0  0  0  0  0  0  0  0  0
  -12.5262  -20.4408   10.5053 C   0  0  0  0  0  0  0  0  0  0  0  0
  -13.3188  -19.2846   10.5304 C   0  0  0  0  0  0  0  0  0  0  0  0
  -14.3665  -19.1344    9.6224 C   0  0  0  0  0  0  0  0  0  0  0  0
  -14.6219  -20.1279    8.6796 C   0  0  0  0  0  0  0  0  0  0  0  0
  -13.8238  -21.2756    8.6345 C   0  0  0  0  0  0  0  0  0  0  0  0
  -12.7674  -21.4342    9.5416 C   0  0  0  0  0  0  0  0  0  0  0  0
  -11.7588  -22.8458    9.4996 Cl  0  0  0  0  0  0  0  0  0  0  0  0
  -14.1988  -22.4584    7.4296 Cl  0  0  0  0  0  0  0  0  0  0  0  0
  1  2  1  0
  2  3  2  0
  2  4  1  0
  4  5  1  0
  5  6  1  0
  5 13  2  0
  6  7  1  0
  7  8  2  0
  7 12  1  0
  8  9  1  0
  9 10  2  0
  9 15  1  0
 10 11  1  0
 10 14  1  0
 11 12  2  0
 12 13  1  0
 15 16  1  0
 16 17  2  0
 16 21  1  0
 17 18  1  0
 18 19  2  0
 19 20  1  0
 20 21  2  0
 20 23  1  0
 21 22  1  0
M  END
>  <Gold.Gold.Protein.RotatedWaterAtoms>  (490) 


>  <Gold.Id.Protein>  (490) 


>  <Gold.PLP.Chemscore.CHOScore>  (490) 
0.0000

>  <Gold.PLP.Chemscore.Hbond>  (490) 
1.0000

>  <Gold.PLP.Chemscore.Internal.Correction>  (490) 
0.0086

>  <Gold.PLP.Chemscore.Metal>  (490) 
0.0000

>  <Gold.PLP.Fitness>  (490) 
50.7139

>  <Gold.PLP.PLP>  (490) 
-48.1706

>  <Gold.PLP.ligand.clash>  (490) 
0.0000

>  <Gold.PLP.ligand.torsion>  (490) 
0.2327

>  <Gold.PLP.part.buried>  (490) 
-6.5205

>  <Gold.PLP.part.hbond>  (490) 
-2.0000

>  <Gold.PLP.part.metal>  (490) 
0.0000

>  <Gold.PLP.part.nonpolar>  (490) 
-39.3857

>  <Gold.PLP.part.repulsive>  (490) 
0.3298

>  <Gold.Protein.RotatedAtoms>  (490) 


>  <Gold.Protein.RotatedTorsions>  (490) 


>  <Gold.Protein.RotatedWaterAtoms>  (490) 


>  <Gold.Version>  (490) 
5.3.0

>  <PLP.Chemscore.CHOScore>  (490) 


>  <PLP.Chemscore.Hbond>  (490) 


>  <PLP.Chemscore.Internal.Correction>  (490) 


>  <PLP.Chemscore.Metal>  (490) 


>  <PLP.Fitness>  (490) 


>  <PLP.PLP>  (490) 


>  <PLP.ligand.clash>  (490) 


>  <PLP.ligand.torsion>  (490) 


>  <PLP.part.buried>  (490) 


>  <PLP.part.hbond>  (490) 


>  <PLP.part.metal>  (490) 


>  <PLP.part.nonpolar>  (490) 


>  <PLP.part.repulsive>  (490) 


>  <RMSD>  (490) 
0.439733510035

>  <Torsion>  (490) 
177.672185574

>  <TorsionO>  (490) 
4.31728583372

>  <TorsionR>  (490) 
173.35489974

>  <Version>  (490) 


>  <product>  (490) 
33|Compound_19|Compounds_3D_F|sdf|6|dock6|1

>  <rmsd>  (490) 
-1

$$$$
84|Compound_32|Compounds_3D_F|sdf|14|dock1|1
     RDKit          3D

  9  9  0  0  0  0  0  0  0  0999 V2000
   -5.4938  -12.2123   12.4998 B   0  0  0  0  0  0  0  0  0  0  0  0
   -5.7329  -13.7419   12.2410 C   0  0  0  0  0  0  0  0  0  0  0  0
   -6.8595  -14.1621   12.0844 O   0  0  0  0  0  0  0  0  0  0  0  0
   -4.6851  -14.5888   12.1930 N   0  0  0  0  0  0  0  0  0  0  0  0
   -4.9084  -16.0168   11.9517 C   0  0  0  0  0  0  0  0  0  0  0  0
   -5.6459  -16.7086   13.0997 C   0  0  0  0  0  0  0  0  0  0  0  0
   -5.4915  -16.3278   10.5602 C   0  0  0  0  0  0  0  0  0  0  0  0
   -4.5384  -17.4094   10.5278 O   0  0  0  0  0  0  0  0  0  0  0  0
   -3.6536  -16.7705   11.4752 C   0  0  0  0  0  0  0  0  0  0  0  0
  1  2  1  0
  2  3  2  0
  2  4  1  0
  4  5  1  0
  5  6  1  0
  5  7  1  0
  5  9  1  0
  7  8  1  0
  8  9  1  0
M  END
>  <Gold.Gold.Protein.RotatedWaterAtoms>  (491) 


>  <Gold.Id.Protein>  (491) 


>  <Gold.PLP.Chemscore.CHOScore>  (491) 
0.0000

>  <Gold.PLP.Chemscore.Hbond>  (491) 
1.0000

>  <Gold.PLP.Chemscore.Internal.Correction>  (491) 
0.2523

>  <Gold.PLP.Chemscore.Metal>  (491) 
0.0000

>  <Gold.PLP.Fitness>  (491) 
27.4444

>  <Gold.PLP.PLP>  (491) 
-24.5216

>  <Gold.PLP.ligand.clash>  (491) 
0.0000

>  <Gold.PLP.ligand.torsion>  (491) 
0.1648

>  <Gold.PLP.part.buried>  (491) 
-4.6788

>  <Gold.PLP.part.hbond>  (491) 
-2.0000

>  <Gold.PLP.part.metal>  (491) 
0.0000

>  <Gold.PLP.part.nonpolar>  (491) 
-18.6383

>  <Gold.PLP.part.repulsive>  (491) 
0.2999

>  <Gold.Protein.RotatedAtoms>  (491) 


>  <Gold.Protein.RotatedTorsions>  (491) 


>  <Gold.Protein.RotatedWaterAtoms>  (491) 


>  <Gold.Version>  (491) 
5.3.0

>  <PLP.Chemscore.CHOScore>  (491) 


>  <PLP.Chemscore.Hbond>  (491) 


>  <PLP.Chemscore.Internal.Correction>  (491) 


>  <PLP.Chemscore.Metal>  (491) 


>  <PLP.Fitness>  (491) 


>  <PLP.PLP>  (491) 


>  <PLP.ligand.clash>  (491) 


>  <PLP.ligand.torsion>  (491) 


>  <PLP.part.buried>  (491) 


>  <PLP.part.hbond>  (491) 


>  <PLP.part.metal>  (491) 


>  <PLP.part.nonpolar>  (491) 


>  <PLP.part.repulsive>  (491) 


>  <Version>  (491) 


$$$$
94|664022_40|Aromatic_carboxylic_acids_F|sdf|24|dock1|1
     RDKit          3D

 12 12  0  0  0  0  0  0  0  0999 V2000
   -8.2596  -17.1212   11.4595 C   0  0  0  0  0  0  0  0  0  0  0  0
   -7.6366  -15.8367   11.6688 N   0  0  0  0  0  0  0  0  0  0  0  0
   -8.3409  -14.6553   11.5719 C   0  0  0  0  0  0  0  0  0  0  0  0
   -9.5296  -14.5547   11.2978 O   0  0  0  0  0  0  0  0  0  0  0  0
   -7.5420  -13.4431   11.8503 C   0  0  0  0  0  0  0  0  0  0  0  0
   -8.1627  -12.1983   11.6738 C   0  0  0  0  0  0  0  0  0  0  0  0
   -7.4390  -11.0301   11.9055 C   0  0  0  0  0  0  0  0  0  0  0  0
   -6.1069  -11.0910   12.3103 C   0  0  0  0  0  0  0  0  0  0  0  0
   -5.4897  -12.3324   12.4853 C   0  0  0  0  0  0  0  0  0  0  0  0
   -6.2035  -13.5136   12.2549 C   0  0  0  0  0  0  0  0  0  0  0  0
   -5.3062  -15.1564   12.5638 Br  0  0  0  0  0  0  0  0  0  0  0  0
   -8.1960   -9.5005   11.6887 Cl  0  0  0  0  0  0  0  0  0  0  0  0
  1  2  1  0
  2  3  1  0
  3  4  2  0
  3  5  1  0
  5  6  2  0
  5 10  1  0
  6  7  1  0
  7  8  2  0
  7 12  1  0
  8  9  1  0
  9 10  2  0
 10 11  1  0
M  END
>  <Gold.Gold.Protein.RotatedWaterAtoms>  (492) 


>  <Gold.Id.Protein>  (492) 


>  <Gold.PLP.Chemscore.CHOScore>  (492) 
0.0000

>  <Gold.PLP.Chemscore.Hbond>  (492) 
0.4160

>  <Gold.PLP.Chemscore.Internal.Correction>  (492) 
0.0004

>  <Gold.PLP.Chemscore.Metal>  (492) 
0.0000

>  <Gold.PLP.Fitness>  (492) 
48.9046

>  <Gold.PLP.PLP>  (492) 
-47.6744

>  <Gold.PLP.ligand.clash>  (492) 
0.0000

>  <Gold.PLP.ligand.torsion>  (492) 
0.0091

>  <Gold.PLP.part.buried>  (492) 
-7.3578

>  <Gold.PLP.part.hbond>  (492) 
-0.5127

>  <Gold.PLP.part.metal>  (492) 
0.0000

>  <Gold.PLP.part.nonpolar>  (492) 
-40.3098

>  <Gold.PLP.part.repulsive>  (492) 
0.1684

>  <Gold.Protein.RotatedAtoms>  (492) 


>  <Gold.Protein.RotatedTorsions>  (492) 


>  <Gold.Protein.RotatedWaterAtoms>  (492) 


>  <Gold.Version>  (492) 
5.3.0

>  <PLP.Chemscore.CHOScore>  (492) 


>  <PLP.Chemscore.Hbond>  (492) 


>  <PLP.Chemscore.Internal.Correction>  (492) 


>  <PLP.Chemscore.Metal>  (492) 


>  <PLP.Fitness>  (492) 


>  <PLP.PLP>  (492) 


>  <PLP.ligand.clash>  (492) 


>  <PLP.ligand.torsion>  (492) 


>  <PLP.part.buried>  (492) 


>  <PLP.part.hbond>  (492) 


>  <PLP.part.metal>  (492) 


>  <PLP.part.nonpolar>  (492) 


>  <PLP.part.repulsive>  (492) 


>  <RMSD>  (492) 
0.30972197429

>  <Torsion>  (492) 
172.929186758

>  <TorsionO>  (492) 
24.4968065243

>  <TorsionR>  (492) 
162.574006718

>  <Version>  (492) 


>  <product>  (492) 
84|Compound_32|Compounds_3D_F|sdf|14|dock1|1

>  <rmsd>  (492) 
-1

$$$$
110|565385_49|Aromatic_carboxylic_acids_F|sdf|29|dock1|1
     RDKit          3D

 13 13  0  0  0  0  0  0  0  0999 V2000
  -10.1118  -17.9021   11.6320 C   0  0  0  0  0  0  0  0  0  0  0  0
   -9.7537  -16.5043   11.6546 N   0  0  0  0  0  0  0  0  0  0  0  0
   -8.4330  -16.1187   11.7930 C   0  0  0  0  0  0  0  0  0  0  0  0
   -7.5159  -16.9298   11.9008 O   0  0  0  0  0  0  0  0  0  0  0  0
   -8.1234  -14.6552   11.8105 C   0  0  0  0  0  0  0  0  0  0  0  0
   -9.0636  -13.6551   11.5375 C   0  0  0  0  0  0  0  0  0  0  0  0
   -8.6966  -12.3009   11.5726 C   0  0  0  0  0  0  0  0  0  0  0  0
   -7.3879  -11.9195   11.8809 C   0  0  0  0  0  0  0  0  0  0  0  0
   -6.4486  -12.9235   12.1551 C   0  0  0  0  0  0  0  0  0  0  0  0
   -6.8098  -14.2750   12.1207 C   0  0  0  0  0  0  0  0  0  0  0  0
   -4.6444  -12.5025   12.5849 Br  0  0  0  0  0  0  0  0  0  0  0  0
   -6.9476  -10.6242   11.9372 O   0  0  0  0  0  0  0  0  0  0  0  0
   -7.9020   -9.5910   11.7256 C   0  0  0  0  0  0  0  0  0  0  0  0
  1  2  1  0
  2  3  1  0
  3  4  2  0
  3  5  1  0
  5  6  2  0
  5 10  1  0
  6  7  1  0
  7  8  2  0
  8  9  1  0
  8 12  1  0
  9 10  2  0
  9 11  1  0
 12 13  1  0
M  END
>  <Gold.Gold.Protein.RotatedWaterAtoms>  (493) 


>  <Gold.Id.Protein>  (493) 


>  <Gold.PLP.Chemscore.CHOScore>  (493) 
0.0000

>  <Gold.PLP.Chemscore.Hbond>  (493) 
1.0000

>  <Gold.PLP.Chemscore.Internal.Correction>  (493) 
0.0000

>  <Gold.PLP.Chemscore.Metal>  (493) 
0.0000

>  <Gold.PLP.Fitness>  (493) 
43.9775

>  <Gold.PLP.PLP>  (493) 
-41.0517

>  <Gold.PLP.ligand.clash>  (493) 
0.0000

>  <Gold.PLP.ligand.torsion>  (493) 
0.0371

>  <Gold.PLP.part.buried>  (493) 
-3.7367

>  <Gold.PLP.part.hbond>  (493) 
-1.0000

>  <Gold.PLP.part.metal>  (493) 
0.0000

>  <Gold.PLP.part.nonpolar>  (493) 
-36.7483

>  <Gold.PLP.part.repulsive>  (493) 
0.4054

>  <Gold.Protein.RotatedAtoms>  (493) 


>  <Gold.Protein.RotatedTorsions>  (493) 


>  <Gold.Protein.RotatedWaterAtoms>  (493) 


>  <Gold.Version>  (493) 
5.3.0

>  <PLP.Chemscore.CHOScore>  (493) 


>  <PLP.Chemscore.Hbond>  (493) 


>  <PLP.Chemscore.Internal.Correction>  (493) 


>  <PLP.Chemscore.Metal>  (493) 


>  <PLP.Fitness>  (493) 


>  <PLP.PLP>  (493) 


>  <PLP.ligand.clash>  (493) 


>  <PLP.ligand.torsion>  (493) 


>  <PLP.part.buried>  (493) 


>  <PLP.part.hbond>  (493) 


>  <PLP.part.metal>  (493) 


>  <PLP.part.nonpolar>  (493) 


>  <PLP.part.repulsive>  (493) 


>  <RMSD>  (493) 
0.319376411377

>  <Torsion>  (493) 
169.460450784

>  <TorsionO>  (493) 
9.7963905484

>  <TorsionR>  (493) 
179.256841332

>  <Version>  (493) 


>  <product>  (493) 
84|Compound_32|Compounds_3D_F|sdf|14|dock1|1

>  <rmsd>  (493) 
-1

$$$$
128|137677_56|Aromatic_carboxylic_acids_F|sdf|33|dock1|1
     RDKit          3D

 11 11  0  0  0  0  0  0  0  0999 V2000
   -8.6116  -16.1544   11.8887 C   0  0  0  0  0  0  0  0  0  0  0  0
   -7.9978  -14.8484   11.9215 N   0  0  0  0  0  0  0  0  0  0  0  0
   -8.7778  -13.7008   11.8756 C   0  0  0  0  0  0  0  0  0  0  0  0
  -10.0002  -13.7896   11.8139 O   0  0  0  0  0  0  0  0  0  0  0  0
   -8.0808  -12.3609   11.9017 C   0  0  0  0  0  0  0  0  0  0  0  0
   -8.7916  -11.1851   11.5813 C   0  0  0  0  0  0  0  0  0  0  0  0
   -8.1781   -9.9267   11.5989 C   0  0  0  0  0  0  0  0  0  0  0  0
   -6.8391   -9.8089   11.9369 C   0  0  0  0  0  0  0  0  0  0  0  0
   -6.1124  -10.9502   12.2575 C   0  0  0  0  0  0  0  0  0  0  0  0
   -6.7171  -12.2196   12.2428 C   0  0  0  0  0  0  0  0  0  0  0  0
   -5.5419  -13.6455   12.7121 Br  0  0  0  0  0  0  0  0  0  0  0  0
  1  2  1  0
  2  3  1  0
  3  4  2  0
  3  5  1  0
  5  6  2  0
  5 10  1  0
  6  7  1  0
  7  8  2  0
  8  9  1  0
  9 10  2  0
 10 11  1  0
M  END
>  <Gold.Gold.Protein.RotatedWaterAtoms>  (494) 


>  <Gold.Id.Protein>  (494) 


>  <Gold.PLP.Chemscore.CHOScore>  (494) 
0.0000

>  <Gold.PLP.Chemscore.Hbond>  (494) 
1.0000

>  <Gold.PLP.Chemscore.Internal.Correction>  (494) 
0.0000

>  <Gold.PLP.Chemscore.Metal>  (494) 
0.0000

>  <Gold.PLP.Fitness>  (494) 
45.2899

>  <Gold.PLP.PLP>  (494) 
-42.4444

>  <Gold.PLP.ligand.clash>  (494) 
0.0000

>  <Gold.PLP.ligand.torsion>  (494) 
0.0772

>  <Gold.PLP.part.buried>  (494) 
-6.4690

>  <Gold.PLP.part.hbond>  (494) 
-0.6863

>  <Gold.PLP.part.metal>  (494) 
0.0000

>  <Gold.PLP.part.nonpolar>  (494) 
-34.8280

>  <Gold.PLP.part.repulsive>  (494) 
0.1963

>  <Gold.Protein.RotatedAtoms>  (494) 


>  <Gold.Protein.RotatedTorsions>  (494) 


>  <Gold.Protein.RotatedWaterAtoms>  (494) 


>  <Gold.Version>  (494) 
5.3.0

>  <PLP.Chemscore.CHOScore>  (494) 


>  <PLP.Chemscore.Hbond>  (494) 


>  <PLP.Chemscore.Internal.Correction>  (494) 


>  <PLP.Chemscore.Metal>  (494) 


>  <PLP.Fitness>  (494) 


>  <PLP.PLP>  (494) 


>  <PLP.ligand.clash>  (494) 


>  <PLP.ligand.torsion>  (494) 


>  <PLP.part.buried>  (494) 


>  <PLP.part.hbond>  (494) 


>  <PLP.part.metal>  (494) 


>  <PLP.part.nonpolar>  (494) 


>  <PLP.part.repulsive>  (494) 


>  <RMSD>  (494) 
0.428070490903

>  <Torsion>  (494) 
152.444048788

>  <TorsionO>  (494) 
39.0580871276

>  <TorsionR>  (494) 
168.497864085

>  <Version>  (494) 


>  <product>  (494) 
84|Compound_32|Compounds_3D_F|sdf|14|dock1|1

>  <rmsd>  (494) 
-1

$$$$
974|750794_1404|Aromatic_primary_amines_F|sdf|194|dock3|1
     RDKit          3D

 14 14  0  0  0  0  0  0  0  0999 V2000
  -13.6355  -18.1936    9.4145 C   0  0  0  0  0  0  0  0  0  0  0  0
  -13.2544  -19.4497   10.1732 C   0  0  0  0  0  0  0  0  0  0  0  0
  -11.8731  -19.3506   10.5383 O   0  0  0  0  0  0  0  0  0  0  0  0
  -11.6148  -18.5085   11.5823 C   0  0  0  0  0  0  0  0  0  0  0  0
  -12.3947  -18.2810   12.5004 O   0  0  0  0  0  0  0  0  0  0  0  0
  -10.3031  -17.8985   11.4902 C   0  0  0  0  0  0  0  0  0  0  0  0
   -9.1673  -18.4974   10.9931 C   0  0  0  0  0  0  0  0  0  0  0  0
   -8.1448  -17.6055   11.0758 O   0  0  0  0  0  0  0  0  0  0  0  0
   -8.7110  -16.4917   11.6237 C   0  0  0  0  0  0  0  0  0  0  0  0
   -9.9933  -16.6110   11.8915 N   0  0  0  0  0  0  0  0  0  0  0  0
   -7.9611  -15.3718   11.8549 N   0  0  0  0  0  0  0  0  0  0  0  0
   -8.5046  -14.1249   12.0676 C   0  0  0  0  0  0  0  0  0  0  0  0
   -9.6950  -13.8313   12.1035 O   0  0  0  0  0  0  0  0  0  0  0  0
   -7.4448  -13.0785   12.3021 C   0  0  0  0  0  0  0  0  0  0  0  0
  1  2  1  0
  2  3  1  0
  3  4  1  0
  4  5  2  0
  4  6  1  0
  6  7  2  0
  6 10  1  0
  7  8  1  0
  8  9  1  0
  9 10  2  0
  9 11  1  0
 11 12  1  0
 12 13  2  0
 12 14  1  0
M  END
>  <Gold.Gold.Protein.RotatedWaterAtoms>  (495) 


>  <Gold.Id.Protein>  (495) 


>  <Gold.PLP.Chemscore.CHOScore>  (495) 
0.0000

>  <Gold.PLP.Chemscore.Hbond>  (495) 
2.0000

>  <Gold.PLP.Chemscore.Internal.Correction>  (495) 
0.0053

>  <Gold.PLP.Chemscore.Metal>  (495) 
0.0000

>  <Gold.PLP.Fitness>  (495) 
36.8047

>  <Gold.PLP.PLP>  (495) 
-32.7996

>  <Gold.PLP.ligand.clash>  (495) 
0.0000

>  <Gold.PLP.ligand.torsion>  (495) 
1.0001

>  <Gold.PLP.part.buried>  (495) 
-6.5206

>  <Gold.PLP.part.hbond>  (495) 
-2.9156

>  <Gold.PLP.part.metal>  (495) 
0.0000

>  <Gold.PLP.part.nonpolar>  (495) 
-23.4080

>  <Gold.PLP.part.repulsive>  (495) 
0.3100

>  <Gold.Protein.RotatedAtoms>  (495) 


>  <Gold.Protein.RotatedTorsions>  (495) 


>  <Gold.Protein.RotatedWaterAtoms>  (495) 


>  <Gold.Version>  (495) 
5.3.0

>  <PLP.Chemscore.CHOScore>  (495) 


>  <PLP.Chemscore.Hbond>  (495) 


>  <PLP.Chemscore.Internal.Correction>  (495) 


>  <PLP.Chemscore.Metal>  (495) 


>  <PLP.Fitness>  (495) 


>  <PLP.PLP>  (495) 


>  <PLP.ligand.clash>  (495) 


>  <PLP.ligand.torsion>  (495) 


>  <PLP.part.buried>  (495) 


>  <PLP.part.hbond>  (495) 


>  <PLP.part.metal>  (495) 


>  <PLP.part.nonpolar>  (495) 


>  <PLP.part.repulsive>  (495) 


>  <RMSD>  (495) 
0.499949349045

>  <Torsion>  (495) 
159.973716791

>  <TorsionO>  (495) 
19.1052109979

>  <TorsionR>  (495) 
179.078927789

>  <Version>  (495) 


>  <product>  (495) 
84|Compound_32|Compounds_3D_F|sdf|14|dock1|1

>  <rmsd>  (495) 
-1

$$$$
1884|M3006_1781|Aromatic_primary_amines_F|sdf|361|dock3|1
     RDKit          3D

 31 34  0  0  0  0  0  0  0  0999 V2000
  -14.4210  -19.8971    8.7934 C   0  0  0  0  0  0  0  0  0  0  0  0
  -13.9762  -19.4927   10.1894 C   0  0  0  0  0  0  0  0  0  0  0  0
  -14.1356  -20.6409   11.1817 C   0  0  0  0  0  0  0  0  0  0  0  0
  -13.5197  -20.3070   12.5189 C   0  0  0  0  0  0  0  0  0  0  0  0
  -12.9307  -19.2724   12.7954 O   0  0  0  0  0  0  0  0  0  0  0  0
  -13.7110  -21.3451   13.3845 O   0  0  0  0  0  0  0  0  0  0  0  0
  -12.9425  -21.2698   14.5900 C   0  0  0  0  0  0  0  0  0  0  0  0
  -12.8849  -22.6189   15.2889 C   0  0  0  0  0  0  0  0  0  0  0  0
  -11.6552  -22.4172   16.1494 C   0  0  0  0  0  0  0  0  0  0  0  0
  -11.2420  -23.7410   16.7624 C   0  0  0  0  0  0  0  0  0  0  0  0
  -12.3024  -24.2223   17.5862 O   0  0  0  0  0  0  0  0  0  0  0  0
  -13.7888  -24.3384   16.9603 P   0  0  0  0  0  0  0  0  0  0  0  0
  -14.8775  -24.6795   17.9243 O   0  0  0  0  0  0  0  0  0  0  0  0
  -13.9839  -22.9641   16.1174 O   0  0  0  0  0  0  0  0  0  0  0  0
  -13.5991  -25.4435   15.8075 O   0  0  0  0  0  0  0  0  0  0  0  0
  -10.6922  -21.8161   15.2889 O   0  0  0  0  0  0  0  0  0  0  0  0
  -11.4338  -20.9664   14.3653 C   0  0  0  0  0  0  0  0  0  0  0  0
  -10.9052  -21.2017   13.0342 N   0  0  0  0  0  0  0  0  0  0  0  0
  -10.7814  -22.4114   12.4013 C   0  0  0  0  0  0  0  0  0  0  0  0
  -10.2640  -22.2918   11.1953 N   0  0  0  0  0  0  0  0  0  0  0  0
  -10.0274  -20.9476   11.0424 C   0  0  0  0  0  0  0  0  0  0  0  0
  -10.4203  -20.2487   12.1733 C   0  0  0  0  0  0  0  0  0  0  0  0
  -10.3338  -18.9216   12.3641 N   0  0  0  0  0  0  0  0  0  0  0  0
   -9.8057  -18.2730   11.3024 C   0  0  0  0  0  0  0  0  0  0  0  0
   -9.3808  -18.8370   10.1545 N   0  0  0  0  0  0  0  0  0  0  0  0
   -9.4895  -20.1691   10.0244 C   0  0  0  0  0  0  0  0  0  0  0  0
   -9.0330  -20.6622    8.8349 O   0  0  0  0  0  0  0  0  0  0  0  0
   -9.7222  -16.8901   11.4793 N   0  0  0  0  0  0  0  0  0  0  0  0
   -8.5796  -16.1798   11.7761 C   0  0  0  0  0  0  0  0  0  0  0  0
   -7.4445  -16.6221   11.9131 O   0  0  0  0  0  0  0  0  0  0  0  0
   -8.8524  -14.7024   11.8973 C   0  0  0  0  0  0  0  0  0  0  0  0
  1  2  1  0
  2  3  1  0
  3  4  1  0
  4  5  2  0
  4  6  1  0
  6  7  1  0
  7  8  1  0
  7 17  1  0
  8  9  1  0
  8 14  1  0
  9 10  1  0
  9 16  1  0
 10 11  1  0
 11 12  1  0
 12 13  2  0
 12 14  1  0
 12 15  1  0
 16 17  1  0
 17 18  1  0
 18 19  1  0
 18 22  1  0
 19 20  2  0
 20 21  1  0
 21 22  2  0
 21 26  1  0
 22 23  1  0
 23 24  2  0
 24 25  1  0
 24 28  1  0
 25 26  2  0
 26 27  1  0
 28 29  1  0
 29 30  2  0
 29 31  1  0
M  END
>  <Gold.Gold.Protein.RotatedWaterAtoms>  (496) 


>  <Gold.Id.Protein>  (496) 


>  <Gold.PLP.Chemscore.CHOScore>  (496) 
0.0000

>  <Gold.PLP.Chemscore.Hbond>  (496) 
1.2080

>  <Gold.PLP.Chemscore.Internal.Correction>  (496) 
0.1232

>  <Gold.PLP.Chemscore.Metal>  (496) 
0.0000

>  <Gold.PLP.Fitness>  (496) 
47.7145

>  <Gold.PLP.PLP>  (496) 
-46.0218

>  <Gold.PLP.ligand.clash>  (496) 
0.0000

>  <Gold.PLP.ligand.torsion>  (496) 
1.0272

>  <Gold.PLP.part.buried>  (496) 
-2.2958

>  <Gold.PLP.part.hbond>  (496) 
-4.0214

>  <Gold.PLP.part.metal>  (496) 
0.0000

>  <Gold.PLP.part.nonpolar>  (496) 
-41.4699

>  <Gold.PLP.part.repulsive>  (496) 
0.9524

>  <Gold.Protein.RotatedAtoms>  (496) 


>  <Gold.Protein.RotatedTorsions>  (496) 


>  <Gold.Protein.RotatedWaterAtoms>  (496) 


>  <Gold.Version>  (496) 
5.3.0

>  <PLP.Chemscore.CHOScore>  (496) 


>  <PLP.Chemscore.Hbond>  (496) 


>  <PLP.Chemscore.Internal.Correction>  (496) 


>  <PLP.Chemscore.Metal>  (496) 


>  <PLP.Fitness>  (496) 


>  <PLP.PLP>  (496) 


>  <PLP.ligand.clash>  (496) 


>  <PLP.ligand.torsion>  (496) 


>  <PLP.part.buried>  (496) 


>  <PLP.part.hbond>  (496) 


>  <PLP.part.metal>  (496) 


>  <PLP.part.nonpolar>  (496) 


>  <PLP.part.repulsive>  (496) 


>  <RMSD>  (496) 
0.291955871297

>  <Torsion>  (496) 
171.923704933

>  <TorsionO>  (496) 
6.03609353985

>  <TorsionR>  (496) 
177.959798473

>  <Version>  (496) 


>  <product>  (496) 
84|Compound_32|Compounds_3D_F|sdf|14|dock1|1

>  <rmsd>  (496) 
-1

$$$$
193|32168_281|Aromatic_primary_amines_F|sdf|39|dock6|1
     RDKit          3D

 23 25  0  0  0  0  0  0  0  0999 V2000
   -7.8439  -12.1461   11.8919 C   0  0  0  0  0  0  0  0  0  0  0  0
   -8.5691  -13.4472   11.6781 C   0  0  0  0  0  0  0  0  0  0  0  0
   -9.7886  -13.4981   11.5208 O   0  0  0  0  0  0  0  0  0  0  0  0
   -7.7264  -14.5390   11.7020 N   0  0  0  0  0  0  0  0  0  0  0  0
   -8.1889  -15.8197   11.5323 C   0  0  0  0  0  0  0  0  0  0  0  0
   -9.4747  -16.2039   11.8163 N   0  0  0  0  0  0  0  0  0  0  0  0
   -9.5964  -17.5375   11.5379 C   0  0  0  0  0  0  0  0  0  0  0  0
  -10.6643  -18.4283   11.6415 C   0  0  0  0  0  0  0  0  0  0  0  0
  -10.4051  -19.7586   11.2778 C   0  0  0  0  0  0  0  0  0  0  0  0
   -9.1530  -20.1507   10.7795 C   0  0  0  0  0  0  0  0  0  0  0  0
   -8.1017  -19.2294   10.6839 C   0  0  0  0  0  0  0  0  0  0  0  0
   -8.3349  -17.9032   11.0783 C   0  0  0  0  0  0  0  0  0  0  0  0
   -7.4773  -16.8281   11.0838 N   0  0  0  0  0  0  0  0  0  0  0  0
   -8.8530  -21.7658   10.2429 Cl  0  0  0  0  0  0  0  0  0  0  0  0
  -11.4669  -20.6323   11.3734 O   0  0  0  0  0  0  0  0  0  0  0  0
  -12.5262  -20.4408   10.5053 C   0  0  0  0  0  0  0  0  0  0  0  0
  -13.3188  -19.2846   10.5304 C   0  0  0  0  0  0  0  0  0  0  0  0
  -14.3665  -19.1344    9.6224 C   0  0  0  0  0  0  0  0  0  0  0  0
  -14.6219  -20.1279    8.6796 C   0  0  0  0  0  0  0  0  0  0  0  0
  -13.8238  -21.2756    8.6345 C   0  0  0  0  0  0  0  0  0  0  0  0
  -12.7674  -21.4342    9.5416 C   0  0  0  0  0  0  0  0  0  0  0  0
  -11.7588  -22.8458    9.4996 Cl  0  0  0  0  0  0  0  0  0  0  0  0
  -14.1988  -22.4584    7.4296 Cl  0  0  0  0  0  0  0  0  0  0  0  0
  1  2  1  0
  2  3  2  0
  2  4  1  0
  4  5  1  0
  5  6  1  0
  5 13  2  0
  6  7  1  0
  7  8  2  0
  7 12  1  0
  8  9  1  0
  9 10  2  0
  9 15  1  0
 10 11  1  0
 10 14  1  0
 11 12  2  0
 12 13  1  0
 15 16  1  0
 16 17  2  0
 16 21  1  0
 17 18  1  0
 18 19  2  0
 19 20  1  0
 20 21  2  0
 20 23  1  0
 21 22  1  0
M  END
>  <Gold.Gold.Protein.RotatedWaterAtoms>  (497) 


>  <Gold.Id.Protein>  (497) 


>  <Gold.PLP.Chemscore.CHOScore>  (497) 
0.0000

>  <Gold.PLP.Chemscore.Hbond>  (497) 
1.0000

>  <Gold.PLP.Chemscore.Internal.Correction>  (497) 
0.0086

>  <Gold.PLP.Chemscore.Metal>  (497) 
0.0000

>  <Gold.PLP.Fitness>  (497) 
50.7139

>  <Gold.PLP.PLP>  (497) 
-48.1706

>  <Gold.PLP.ligand.clash>  (497) 
0.0000

>  <Gold.PLP.ligand.torsion>  (497) 
0.2327

>  <Gold.PLP.part.buried>  (497) 
-6.5205

>  <Gold.PLP.part.hbond>  (497) 
-2.0000

>  <Gold.PLP.part.metal>  (497) 
0.0000

>  <Gold.PLP.part.nonpolar>  (497) 
-39.3857

>  <Gold.PLP.part.repulsive>  (497) 
0.3298

>  <Gold.Protein.RotatedAtoms>  (497) 


>  <Gold.Protein.RotatedTorsions>  (497) 


>  <Gold.Protein.RotatedWaterAtoms>  (497) 


>  <Gold.Version>  (497) 
5.3.0

>  <PLP.Chemscore.CHOScore>  (497) 


>  <PLP.Chemscore.Hbond>  (497) 


>  <PLP.Chemscore.Internal.Correction>  (497) 


>  <PLP.Chemscore.Metal>  (497) 


>  <PLP.Fitness>  (497) 


>  <PLP.PLP>  (497) 


>  <PLP.ligand.clash>  (497) 


>  <PLP.ligand.torsion>  (497) 


>  <PLP.part.buried>  (497) 


>  <PLP.part.hbond>  (497) 


>  <PLP.part.metal>  (497) 


>  <PLP.part.nonpolar>  (497) 


>  <PLP.part.repulsive>  (497) 


>  <RMSD>  (497) 
0.439733510035

>  <Torsion>  (497) 
177.672185574

>  <TorsionO>  (497) 
4.31728583372

>  <TorsionR>  (497) 
173.35489974

>  <Version>  (497) 


>  <product>  (497) 
84|Compound_32|Compounds_3D_F|sdf|14|dock1|1

>  <rmsd>  (497) 
-1

$$$$
65|Compound_25|Compounds_3D_F|sdf|11|dock3|1
     RDKit          3D

 10  9  0  0  0  0  0  0  0  0999 V2000
   -7.8869  -12.5766   12.1848 O   0  0  0  0  0  0  0  0  0  0  0  0
   -6.7135  -11.9266   12.1973 C   0  0  0  0  0  0  0  0  0  0  0  0
   -6.6913  -10.7179   12.2013 O   0  0  0  0  0  0  0  0  0  0  0  0
   -5.4217  -12.7029   12.2054 C   0  0  0  0  0  0  0  0  0  0  0  0
   -4.5695  -12.2010   13.2375 O   0  0  0  0  0  0  0  0  0  0  0  0
   -5.7182  -14.1819   12.4627 C   0  0  0  0  0  0  0  0  0  0  0  0
   -4.6203  -14.9983   11.9387 N   0  0  0  0  0  0  0  0  0  0  0  0
   -4.6051  -16.3284   12.1559 C   0  0  0  0  0  0  0  0  0  0  0  0
   -5.5008  -16.8488   12.7860 O   0  0  0  0  0  0  0  0  0  0  0  0
   -3.4291  -17.2025   11.5942 B   0  0  0  0  0  0  0  0  0  0  0  0
  1  2  1  0
  2  3  2  0
  2  4  1  0
  4  5  1  0
  4  6  1  0
  6  7  1  0
  7  8  1  0
  8  9  2  0
  8 10  1  0
M  END
>  <Gold.Gold.Protein.RotatedWaterAtoms>  (498) 


>  <Gold.Id.Protein>  (498) 


>  <Gold.PLP.Chemscore.CHOScore>  (498) 
0.0000

>  <Gold.PLP.Chemscore.Hbond>  (498) 
2.0000

>  <Gold.PLP.Chemscore.Internal.Correction>  (498) 
0.0006

>  <Gold.PLP.Chemscore.Metal>  (498) 
0.0000

>  <Gold.PLP.Fitness>  (498) 
34.2864

>  <Gold.PLP.PLP>  (498) 
-30.5799

>  <Gold.PLP.ligand.clash>  (498) 
1.3552

>  <Gold.PLP.ligand.torsion>  (498) 
0.4694

>  <Gold.PLP.part.buried>  (498) 
-8.2834

>  <Gold.PLP.part.hbond>  (498) 
-5.0000

>  <Gold.PLP.part.metal>  (498) 
0.0000

>  <Gold.PLP.part.nonpolar>  (498) 
-17.9004

>  <Gold.PLP.part.repulsive>  (498) 
0.4312

>  <Gold.Protein.RotatedAtoms>  (498) 


>  <Gold.Protein.RotatedTorsions>  (498) 


>  <Gold.Protein.RotatedWaterAtoms>  (498) 


>  <Gold.Version>  (498) 
5.3.0

>  <PLP.Chemscore.CHOScore>  (498) 


>  <PLP.Chemscore.Hbond>  (498) 


>  <PLP.Chemscore.Internal.Correction>  (498) 


>  <PLP.Chemscore.Metal>  (498) 


>  <PLP.Fitness>  (498) 


>  <PLP.PLP>  (498) 


>  <PLP.ligand.clash>  (498) 


>  <PLP.ligand.torsion>  (498) 


>  <PLP.part.buried>  (498) 


>  <PLP.part.hbond>  (498) 


>  <PLP.part.metal>  (498) 


>  <PLP.part.nonpolar>  (498) 


>  <PLP.part.repulsive>  (498) 


>  <Version>  (498) 


$$$$
94|664022_40|Aromatic_carboxylic_acids_F|sdf|24|dock1|1
     RDKit          3D

 12 12  0  0  0  0  0  0  0  0999 V2000
   -8.2596  -17.1212   11.4595 C   0  0  0  0  0  0  0  0  0  0  0  0
   -7.6366  -15.8367   11.6688 N   0  0  0  0  0  0  0  0  0  0  0  0
   -8.3409  -14.6553   11.5719 C   0  0  0  0  0  0  0  0  0  0  0  0
   -9.5296  -14.5547   11.2978 O   0  0  0  0  0  0  0  0  0  0  0  0
   -7.5420  -13.4431   11.8503 C   0  0  0  0  0  0  0  0  0  0  0  0
   -8.1627  -12.1983   11.6738 C   0  0  0  0  0  0  0  0  0  0  0  0
   -7.4390  -11.0301   11.9055 C   0  0  0  0  0  0  0  0  0  0  0  0
   -6.1069  -11.0910   12.3103 C   0  0  0  0  0  0  0  0  0  0  0  0
   -5.4897  -12.3324   12.4853 C   0  0  0  0  0  0  0  0  0  0  0  0
   -6.2035  -13.5136   12.2549 C   0  0  0  0  0  0  0  0  0  0  0  0
   -5.3062  -15.1564   12.5638 Br  0  0  0  0  0  0  0  0  0  0  0  0
   -8.1960   -9.5005   11.6887 Cl  0  0  0  0  0  0  0  0  0  0  0  0
  1  2  1  0
  2  3  1  0
  3  4  2  0
  3  5  1  0
  5  6  2  0
  5 10  1  0
  6  7  1  0
  7  8  2  0
  7 12  1  0
  8  9  1  0
  9 10  2  0
 10 11  1  0
M  END
>  <Gold.Gold.Protein.RotatedWaterAtoms>  (499) 


>  <Gold.Id.Protein>  (499) 


>  <Gold.PLP.Chemscore.CHOScore>  (499) 
0.0000

>  <Gold.PLP.Chemscore.Hbond>  (499) 
0.4160

>  <Gold.PLP.Chemscore.Internal.Correction>  (499) 
0.0004

>  <Gold.PLP.Chemscore.Metal>  (499) 
0.0000

>  <Gold.PLP.Fitness>  (499) 
48.9046

>  <Gold.PLP.PLP>  (499) 
-47.6744

>  <Gold.PLP.ligand.clash>  (499) 
0.0000

>  <Gold.PLP.ligand.torsion>  (499) 
0.0091

>  <Gold.PLP.part.buried>  (499) 
-7.3578

>  <Gold.PLP.part.hbond>  (499) 
-0.5127

>  <Gold.PLP.part.metal>  (499) 
0.0000

>  <Gold.PLP.part.nonpolar>  (499) 
-40.3098

>  <Gold.PLP.part.repulsive>  (499) 
0.1684

>  <Gold.Protein.RotatedAtoms>  (499) 


>  <Gold.Protein.RotatedTorsions>  (499) 


>  <Gold.Protein.RotatedWaterAtoms>  (499) 


>  <Gold.Version>  (499) 
5.3.0

>  <PLP.Chemscore.CHOScore>  (499) 


>  <PLP.Chemscore.Hbond>  (499) 


>  <PLP.Chemscore.Internal.Correction>  (499) 


>  <PLP.Chemscore.Metal>  (499) 


>  <PLP.Fitness>  (499) 


>  <PLP.PLP>  (499) 


>  <PLP.ligand.clash>  (499) 


>  <PLP.ligand.torsion>  (499) 


>  <PLP.part.buried>  (499) 


>  <PLP.part.hbond>  (499) 


>  <PLP.part.metal>  (499) 


>  <PLP.part.nonpolar>  (499) 


>  <PLP.part.repulsive>  (499) 


>  <RMSD>  (499) 
0.30972197429

>  <Torsion>  (499) 
172.929186758

>  <TorsionO>  (499) 
24.4968065243

>  <TorsionR>  (499) 
162.574006718

>  <Version>  (499) 


>  <product>  (499) 
65|Compound_25|Compounds_3D_F|sdf|11|dock3|1

>  <rmsd>  (499) 
-1

$$$$
110|565385_49|Aromatic_carboxylic_acids_F|sdf|29|dock1|1
     RDKit          3D

 13 13  0  0  0  0  0  0  0  0999 V2000
  -10.1118  -17.9021   11.6320 C   0  0  0  0  0  0  0  0  0  0  0  0
   -9.7537  -16.5043   11.6546 N   0  0  0  0  0  0  0  0  0  0  0  0
   -8.4330  -16.1187   11.7930 C   0  0  0  0  0  0  0  0  0  0  0  0
   -7.5159  -16.9298   11.9008 O   0  0  0  0  0  0  0  0  0  0  0  0
   -8.1234  -14.6552   11.8105 C   0  0  0  0  0  0  0  0  0  0  0  0
   -9.0636  -13.6551   11.5375 C   0  0  0  0  0  0  0  0  0  0  0  0
   -8.6966  -12.3009   11.5726 C   0  0  0  0  0  0  0  0  0  0  0  0
   -7.3879  -11.9195   11.8809 C   0  0  0  0  0  0  0  0  0  0  0  0
   -6.4486  -12.9235   12.1551 C   0  0  0  0  0  0  0  0  0  0  0  0
   -6.8098  -14.2750   12.1207 C   0  0  0  0  0  0  0  0  0  0  0  0
   -4.6444  -12.5025   12.5849 Br  0  0  0  0  0  0  0  0  0  0  0  0
   -6.9476  -10.6242   11.9372 O   0  0  0  0  0  0  0  0  0  0  0  0
   -7.9020   -9.5910   11.7256 C   0  0  0  0  0  0  0  0  0  0  0  0
  1  2  1  0
  2  3  1  0
  3  4  2  0
  3  5  1  0
  5  6  2  0
  5 10  1  0
  6  7  1  0
  7  8  2  0
  8  9  1  0
  8 12  1  0
  9 10  2  0
  9 11  1  0
 12 13  1  0
M  END
>  <Gold.Gold.Protein.RotatedWaterAtoms>  (500) 


>  <Gold.Id.Protein>  (500) 


>  <Gold.PLP.Chemscore.CHOScore>  (500) 
0.0000

>  <Gold.PLP.Chemscore.Hbond>  (500) 
1.0000

>  <Gold.PLP.Chemscore.Internal.Correction>  (500) 
0.0000

>  <Gold.PLP.Chemscore.Metal>  (500) 
0.0000

>  <Gold.PLP.Fitness>  (500) 
43.9775

>  <Gold.PLP.PLP>  (500) 
-41.0517

>  <Gold.PLP.ligand.clash>  (500) 
0.0000

>  <Gold.PLP.ligand.torsion>  (500) 
0.0371

>  <Gold.PLP.part.buried>  (500) 
-3.7367

>  <Gold.PLP.part.hbond>  (500) 
-1.0000

>  <Gold.PLP.part.metal>  (500) 
0.0000

>  <Gold.PLP.part.nonpolar>  (500) 
-36.7483

>  <Gold.PLP.part.repulsive>  (500) 
0.4054

>  <Gold.Protein.RotatedAtoms>  (500) 


>  <Gold.Protein.RotatedTorsions>  (500) 


>  <Gold.Protein.RotatedWaterAtoms>  (500) 


>  <Gold.Version>  (500) 
5.3.0

>  <PLP.Chemscore.CHOScore>  (500) 


>  <PLP.Chemscore.Hbond>  (500) 


>  <PLP.Chemscore.Internal.Correction>  (500) 


>  <PLP.Chemscore.Metal>  (500) 


>  <PLP.Fitness>  (500) 


>  <PLP.PLP>  (500) 


>  <PLP.ligand.clash>  (500) 


>  <PLP.ligand.torsion>  (500) 


>  <PLP.part.buried>  (500) 


>  <PLP.part.hbond>  (500) 


>  <PLP.part.metal>  (500) 


>  <PLP.part.nonpolar>  (500) 


>  <PLP.part.repulsive>  (500) 


>  <RMSD>  (500) 
0.319376411377

>  <Torsion>  (500) 
169.460450784

>  <TorsionO>  (500) 
9.7963905484

>  <TorsionR>  (500) 
179.256841332

>  <Version>  (500) 


>  <product>  (500) 
65|Compound_25|Compounds_3D_F|sdf|11|dock3|1

>  <rmsd>  (500) 
-1

$$$$
128|137677_56|Aromatic_carboxylic_acids_F|sdf|33|dock1|1
     RDKit          3D

 11 11  0  0  0  0  0  0  0  0999 V2000
   -8.6116  -16.1544   11.8887 C   0  0  0  0  0  0  0  0  0  0  0  0
   -7.9978  -14.8484   11.9215 N   0  0  0  0  0  0  0  0  0  0  0  0
   -8.7778  -13.7008   11.8756 C   0  0  0  0  0  0  0  0  0  0  0  0
  -10.0002  -13.7896   11.8139 O   0  0  0  0  0  0  0  0  0  0  0  0
   -8.0808  -12.3609   11.9017 C   0  0  0  0  0  0  0  0  0  0  0  0
   -8.7916  -11.1851   11.5813 C   0  0  0  0  0  0  0  0  0  0  0  0
   -8.1781   -9.9267   11.5989 C   0  0  0  0  0  0  0  0  0  0  0  0
   -6.8391   -9.8089   11.9369 C   0  0  0  0  0  0  0  0  0  0  0  0
   -6.1124  -10.9502   12.2575 C   0  0  0  0  0  0  0  0  0  0  0  0
   -6.7171  -12.2196   12.2428 C   0  0  0  0  0  0  0  0  0  0  0  0
   -5.5419  -13.6455   12.7121 Br  0  0  0  0  0  0  0  0  0  0  0  0
  1  2  1  0
  2  3  1  0
  3  4  2  0
  3  5  1  0
  5  6  2  0
  5 10  1  0
  6  7  1  0
  7  8  2  0
  8  9  1  0
  9 10  2  0
 10 11  1  0
M  END
>  <Gold.Gold.Protein.RotatedWaterAtoms>  (501) 


>  <Gold.Id.Protein>  (501) 


>  <Gold.PLP.Chemscore.CHOScore>  (501) 
0.0000

>  <Gold.PLP.Chemscore.Hbond>  (501) 
1.0000

>  <Gold.PLP.Chemscore.Internal.Correction>  (501) 
0.0000

>  <Gold.PLP.Chemscore.Metal>  (501) 
0.0000

>  <Gold.PLP.Fitness>  (501) 
45.2899

>  <Gold.PLP.PLP>  (501) 
-42.4444

>  <Gold.PLP.ligand.clash>  (501) 
0.0000

>  <Gold.PLP.ligand.torsion>  (501) 
0.0772

>  <Gold.PLP.part.buried>  (501) 
-6.4690

>  <Gold.PLP.part.hbond>  (501) 
-0.6863

>  <Gold.PLP.part.metal>  (501) 
0.0000

>  <Gold.PLP.part.nonpolar>  (501) 
-34.8280

>  <Gold.PLP.part.repulsive>  (501) 
0.1963

>  <Gold.Protein.RotatedAtoms>  (501) 


>  <Gold.Protein.RotatedTorsions>  (501) 


>  <Gold.Protein.RotatedWaterAtoms>  (501) 


>  <Gold.Version>  (501) 
5.3.0

>  <PLP.Chemscore.CHOScore>  (501) 


>  <PLP.Chemscore.Hbond>  (501) 


>  <PLP.Chemscore.Internal.Correction>  (501) 


>  <PLP.Chemscore.Metal>  (501) 


>  <PLP.Fitness>  (501) 


>  <PLP.PLP>  (501) 


>  <PLP.ligand.clash>  (501) 


>  <PLP.ligand.torsion>  (501) 


>  <PLP.part.buried>  (501) 


>  <PLP.part.hbond>  (501) 


>  <PLP.part.metal>  (501) 


>  <PLP.part.nonpolar>  (501) 


>  <PLP.part.repulsive>  (501) 


>  <RMSD>  (501) 
0.428070490903

>  <Torsion>  (501) 
152.444048788

>  <TorsionO>  (501) 
39.0580871276

>  <TorsionR>  (501) 
168.497864085

>  <Version>  (501) 


>  <product>  (501) 
65|Compound_25|Compounds_3D_F|sdf|11|dock3|1

>  <rmsd>  (501) 
-1

$$$$
974|750794_1404|Aromatic_primary_amines_F|sdf|194|dock3|1
     RDKit          3D

 14 14  0  0  0  0  0  0  0  0999 V2000
  -13.6355  -18.1936    9.4145 C   0  0  0  0  0  0  0  0  0  0  0  0
  -13.2544  -19.4497   10.1732 C   0  0  0  0  0  0  0  0  0  0  0  0
  -11.8731  -19.3506   10.5383 O   0  0  0  0  0  0  0  0  0  0  0  0
  -11.6148  -18.5085   11.5823 C   0  0  0  0  0  0  0  0  0  0  0  0
  -12.3947  -18.2810   12.5004 O   0  0  0  0  0  0  0  0  0  0  0  0
  -10.3031  -17.8985   11.4902 C   0  0  0  0  0  0  0  0  0  0  0  0
   -9.1673  -18.4974   10.9931 C   0  0  0  0  0  0  0  0  0  0  0  0
   -8.1448  -17.6055   11.0758 O   0  0  0  0  0  0  0  0  0  0  0  0
   -8.7110  -16.4917   11.6237 C   0  0  0  0  0  0  0  0  0  0  0  0
   -9.9933  -16.6110   11.8915 N   0  0  0  0  0  0  0  0  0  0  0  0
   -7.9611  -15.3718   11.8549 N   0  0  0  0  0  0  0  0  0  0  0  0
   -8.5046  -14.1249   12.0676 C   0  0  0  0  0  0  0  0  0  0  0  0
   -9.6950  -13.8313   12.1035 O   0  0  0  0  0  0  0  0  0  0  0  0
   -7.4448  -13.0785   12.3021 C   0  0  0  0  0  0  0  0  0  0  0  0
  1  2  1  0
  2  3  1  0
  3  4  1  0
  4  5  2  0
  4  6  1  0
  6  7  2  0
  6 10  1  0
  7  8  1  0
  8  9  1  0
  9 10  2  0
  9 11  1  0
 11 12  1  0
 12 13  2  0
 12 14  1  0
M  END
>  <Gold.Gold.Protein.RotatedWaterAtoms>  (502) 


>  <Gold.Id.Protein>  (502) 


>  <Gold.PLP.Chemscore.CHOScore>  (502) 
0.0000

>  <Gold.PLP.Chemscore.Hbond>  (502) 
2.0000

>  <Gold.PLP.Chemscore.Internal.Correction>  (502) 
0.0053

>  <Gold.PLP.Chemscore.Metal>  (502) 
0.0000

>  <Gold.PLP.Fitness>  (502) 
36.8047

>  <Gold.PLP.PLP>  (502) 
-32.7996

>  <Gold.PLP.ligand.clash>  (502) 
0.0000

>  <Gold.PLP.ligand.torsion>  (502) 
1.0001

>  <Gold.PLP.part.buried>  (502) 
-6.5206

>  <Gold.PLP.part.hbond>  (502) 
-2.9156

>  <Gold.PLP.part.metal>  (502) 
0.0000

>  <Gold.PLP.part.nonpolar>  (502) 
-23.4080

>  <Gold.PLP.part.repulsive>  (502) 
0.3100

>  <Gold.Protein.RotatedAtoms>  (502) 


>  <Gold.Protein.RotatedTorsions>  (502) 


>  <Gold.Protein.RotatedWaterAtoms>  (502) 


>  <Gold.Version>  (502) 
5.3.0

>  <PLP.Chemscore.CHOScore>  (502) 


>  <PLP.Chemscore.Hbond>  (502) 


>  <PLP.Chemscore.Internal.Correction>  (502) 


>  <PLP.Chemscore.Metal>  (502) 


>  <PLP.Fitness>  (502) 


>  <PLP.PLP>  (502) 


>  <PLP.ligand.clash>  (502) 


>  <PLP.ligand.torsion>  (502) 


>  <PLP.part.buried>  (502) 


>  <PLP.part.hbond>  (502) 


>  <PLP.part.metal>  (502) 


>  <PLP.part.nonpolar>  (502) 


>  <PLP.part.repulsive>  (502) 


>  <RMSD>  (502) 
0.499949349045

>  <Torsion>  (502) 
159.973716791

>  <TorsionO>  (502) 
19.1052109979

>  <TorsionR>  (502) 
179.078927789

>  <Version>  (502) 


>  <product>  (502) 
65|Compound_25|Compounds_3D_F|sdf|11|dock3|1

>  <rmsd>  (502) 
-1

$$$$
1884|M3006_1781|Aromatic_primary_amines_F|sdf|361|dock3|1
     RDKit          3D

 31 34  0  0  0  0  0  0  0  0999 V2000
  -14.4210  -19.8971    8.7934 C   0  0  0  0  0  0  0  0  0  0  0  0
  -13.9762  -19.4927   10.1894 C   0  0  0  0  0  0  0  0  0  0  0  0
  -14.1356  -20.6409   11.1817 C   0  0  0  0  0  0  0  0  0  0  0  0
  -13.5197  -20.3070   12.5189 C   0  0  0  0  0  0  0  0  0  0  0  0
  -12.9307  -19.2724   12.7954 O   0  0  0  0  0  0  0  0  0  0  0  0
  -13.7110  -21.3451   13.3845 O   0  0  0  0  0  0  0  0  0  0  0  0
  -12.9425  -21.2698   14.5900 C   0  0  0  0  0  0  0  0  0  0  0  0
  -12.8849  -22.6189   15.2889 C   0  0  0  0  0  0  0  0  0  0  0  0
  -11.6552  -22.4172   16.1494 C   0  0  0  0  0  0  0  0  0  0  0  0
  -11.2420  -23.7410   16.7624 C   0  0  0  0  0  0  0  0  0  0  0  0
  -12.3024  -24.2223   17.5862 O   0  0  0  0  0  0  0  0  0  0  0  0
  -13.7888  -24.3384   16.9603 P   0  0  0  0  0  0  0  0  0  0  0  0
  -14.8775  -24.6795   17.9243 O   0  0  0  0  0  0  0  0  0  0  0  0
  -13.9839  -22.9641   16.1174 O   0  0  0  0  0  0  0  0  0  0  0  0
  -13.5991  -25.4435   15.8075 O   0  0  0  0  0  0  0  0  0  0  0  0
  -10.6922  -21.8161   15.2889 O   0  0  0  0  0  0  0  0  0  0  0  0
  -11.4338  -20.9664   14.3653 C   0  0  0  0  0  0  0  0  0  0  0  0
  -10.9052  -21.2017   13.0342 N   0  0  0  0  0  0  0  0  0  0  0  0
  -10.7814  -22.4114   12.4013 C   0  0  0  0  0  0  0  0  0  0  0  0
  -10.2640  -22.2918   11.1953 N   0  0  0  0  0  0  0  0  0  0  0  0
  -10.0274  -20.9476   11.0424 C   0  0  0  0  0  0  0  0  0  0  0  0
  -10.4203  -20.2487   12.1733 C   0  0  0  0  0  0  0  0  0  0  0  0
  -10.3338  -18.9216   12.3641 N   0  0  0  0  0  0  0  0  0  0  0  0
   -9.8057  -18.2730   11.3024 C   0  0  0  0  0  0  0  0  0  0  0  0
   -9.3808  -18.8370   10.1545 N   0  0  0  0  0  0  0  0  0  0  0  0
   -9.4895  -20.1691   10.0244 C   0  0  0  0  0  0  0  0  0  0  0  0
   -9.0330  -20.6622    8.8349 O   0  0  0  0  0  0  0  0  0  0  0  0
   -9.7222  -16.8901   11.4793 N   0  0  0  0  0  0  0  0  0  0  0  0
   -8.5796  -16.1798   11.7761 C   0  0  0  0  0  0  0  0  0  0  0  0
   -7.4445  -16.6221   11.9131 O   0  0  0  0  0  0  0  0  0  0  0  0
   -8.8524  -14.7024   11.8973 C   0  0  0  0  0  0  0  0  0  0  0  0
  1  2  1  0
  2  3  1  0
  3  4  1  0
  4  5  2  0
  4  6  1  0
  6  7  1  0
  7  8  1  0
  7 17  1  0
  8  9  1  0
  8 14  1  0
  9 10  1  0
  9 16  1  0
 10 11  1  0
 11 12  1  0
 12 13  2  0
 12 14  1  0
 12 15  1  0
 16 17  1  0
 17 18  1  0
 18 19  1  0
 18 22  1  0
 19 20  2  0
 20 21  1  0
 21 22  2  0
 21 26  1  0
 22 23  1  0
 23 24  2  0
 24 25  1  0
 24 28  1  0
 25 26  2  0
 26 27  1  0
 28 29  1  0
 29 30  2  0
 29 31  1  0
M  END
>  <Gold.Gold.Protein.RotatedWaterAtoms>  (503) 


>  <Gold.Id.Protein>  (503) 


>  <Gold.PLP.Chemscore.CHOScore>  (503) 
0.0000

>  <Gold.PLP.Chemscore.Hbond>  (503) 
1.2080

>  <Gold.PLP.Chemscore.Internal.Correction>  (503) 
0.1232

>  <Gold.PLP.Chemscore.Metal>  (503) 
0.0000

>  <Gold.PLP.Fitness>  (503) 
47.7145

>  <Gold.PLP.PLP>  (503) 
-46.0218

>  <Gold.PLP.ligand.clash>  (503) 
0.0000

>  <Gold.PLP.ligand.torsion>  (503) 
1.0272

>  <Gold.PLP.part.buried>  (503) 
-2.2958

>  <Gold.PLP.part.hbond>  (503) 
-4.0214

>  <Gold.PLP.part.metal>  (503) 
0.0000

>  <Gold.PLP.part.nonpolar>  (503) 
-41.4699

>  <Gold.PLP.part.repulsive>  (503) 
0.9524

>  <Gold.Protein.RotatedAtoms>  (503) 


>  <Gold.Protein.RotatedTorsions>  (503) 


>  <Gold.Protein.RotatedWaterAtoms>  (503) 


>  <Gold.Version>  (503) 
5.3.0

>  <PLP.Chemscore.CHOScore>  (503) 


>  <PLP.Chemscore.Hbond>  (503) 


>  <PLP.Chemscore.Internal.Correction>  (503) 


>  <PLP.Chemscore.Metal>  (503) 


>  <PLP.Fitness>  (503) 


>  <PLP.PLP>  (503) 


>  <PLP.ligand.clash>  (503) 


>  <PLP.ligand.torsion>  (503) 


>  <PLP.part.buried>  (503) 


>  <PLP.part.hbond>  (503) 


>  <PLP.part.metal>  (503) 


>  <PLP.part.nonpolar>  (503) 


>  <PLP.part.repulsive>  (503) 


>  <RMSD>  (503) 
0.291955871297

>  <Torsion>  (503) 
171.923704933

>  <TorsionO>  (503) 
6.03609353985

>  <TorsionR>  (503) 
177.959798473

>  <Version>  (503) 


>  <product>  (503) 
65|Compound_25|Compounds_3D_F|sdf|11|dock3|1

>  <rmsd>  (503) 
-1

$$$$
193|32168_281|Aromatic_primary_amines_F|sdf|39|dock6|1
     RDKit          3D

 23 25  0  0  0  0  0  0  0  0999 V2000
   -7.8439  -12.1461   11.8919 C   0  0  0  0  0  0  0  0  0  0  0  0
   -8.5691  -13.4472   11.6781 C   0  0  0  0  0  0  0  0  0  0  0  0
   -9.7886  -13.4981   11.5208 O   0  0  0  0  0  0  0  0  0  0  0  0
   -7.7264  -14.5390   11.7020 N   0  0  0  0  0  0  0  0  0  0  0  0
   -8.1889  -15.8197   11.5323 C   0  0  0  0  0  0  0  0  0  0  0  0
   -9.4747  -16.2039   11.8163 N   0  0  0  0  0  0  0  0  0  0  0  0
   -9.5964  -17.5375   11.5379 C   0  0  0  0  0  0  0  0  0  0  0  0
  -10.6643  -18.4283   11.6415 C   0  0  0  0  0  0  0  0  0  0  0  0
  -10.4051  -19.7586   11.2778 C   0  0  0  0  0  0  0  0  0  0  0  0
   -9.1530  -20.1507   10.7795 C   0  0  0  0  0  0  0  0  0  0  0  0
   -8.1017  -19.2294   10.6839 C   0  0  0  0  0  0  0  0  0  0  0  0
   -8.3349  -17.9032   11.0783 C   0  0  0  0  0  0  0  0  0  0  0  0
   -7.4773  -16.8281   11.0838 N   0  0  0  0  0  0  0  0  0  0  0  0
   -8.8530  -21.7658   10.2429 Cl  0  0  0  0  0  0  0  0  0  0  0  0
  -11.4669  -20.6323   11.3734 O   0  0  0  0  0  0  0  0  0  0  0  0
  -12.5262  -20.4408   10.5053 C   0  0  0  0  0  0  0  0  0  0  0  0
  -13.3188  -19.2846   10.5304 C   0  0  0  0  0  0  0  0  0  0  0  0
  -14.3665  -19.1344    9.6224 C   0  0  0  0  0  0  0  0  0  0  0  0
  -14.6219  -20.1279    8.6796 C   0  0  0  0  0  0  0  0  0  0  0  0
  -13.8238  -21.2756    8.6345 C   0  0  0  0  0  0  0  0  0  0  0  0
  -12.7674  -21.4342    9.5416 C   0  0  0  0  0  0  0  0  0  0  0  0
  -11.7588  -22.8458    9.4996 Cl  0  0  0  0  0  0  0  0  0  0  0  0
  -14.1988  -22.4584    7.4296 Cl  0  0  0  0  0  0  0  0  0  0  0  0
  1  2  1  0
  2  3  2  0
  2  4  1  0
  4  5  1  0
  5  6  1  0
  5 13  2  0
  6  7  1  0
  7  8  2  0
  7 12  1  0
  8  9  1  0
  9 10  2  0
  9 15  1  0
 10 11  1  0
 10 14  1  0
 11 12  2  0
 12 13  1  0
 15 16  1  0
 16 17  2  0
 16 21  1  0
 17 18  1  0
 18 19  2  0
 19 20  1  0
 20 21  2  0
 20 23  1  0
 21 22  1  0
M  END
>  <Gold.Gold.Protein.RotatedWaterAtoms>  (504) 


>  <Gold.Id.Protein>  (504) 


>  <Gold.PLP.Chemscore.CHOScore>  (504) 
0.0000

>  <Gold.PLP.Chemscore.Hbond>  (504) 
1.0000

>  <Gold.PLP.Chemscore.Internal.Correction>  (504) 
0.0086

>  <Gold.PLP.Chemscore.Metal>  (504) 
0.0000

>  <Gold.PLP.Fitness>  (504) 
50.7139

>  <Gold.PLP.PLP>  (504) 
-48.1706

>  <Gold.PLP.ligand.clash>  (504) 
0.0000

>  <Gold.PLP.ligand.torsion>  (504) 
0.2327

>  <Gold.PLP.part.buried>  (504) 
-6.5205

>  <Gold.PLP.part.hbond>  (504) 
-2.0000

>  <Gold.PLP.part.metal>  (504) 
0.0000

>  <Gold.PLP.part.nonpolar>  (504) 
-39.3857

>  <Gold.PLP.part.repulsive>  (504) 
0.3298

>  <Gold.Protein.RotatedAtoms>  (504) 


>  <Gold.Protein.RotatedTorsions>  (504) 


>  <Gold.Protein.RotatedWaterAtoms>  (504) 


>  <Gold.Version>  (504) 
5.3.0

>  <PLP.Chemscore.CHOScore>  (504) 


>  <PLP.Chemscore.Hbond>  (504) 


>  <PLP.Chemscore.Internal.Correction>  (504) 


>  <PLP.Chemscore.Metal>  (504) 


>  <PLP.Fitness>  (504) 


>  <PLP.PLP>  (504) 


>  <PLP.ligand.clash>  (504) 


>  <PLP.ligand.torsion>  (504) 


>  <PLP.part.buried>  (504) 


>  <PLP.part.hbond>  (504) 


>  <PLP.part.metal>  (504) 


>  <PLP.part.nonpolar>  (504) 


>  <PLP.part.repulsive>  (504) 


>  <RMSD>  (504) 
0.439733510035

>  <Torsion>  (504) 
177.672185574

>  <TorsionO>  (504) 
4.31728583372

>  <TorsionR>  (504) 
173.35489974

>  <Version>  (504) 


>  <product>  (504) 
65|Compound_25|Compounds_3D_F|sdf|11|dock3|1

>  <rmsd>  (504) 
-1

$$$$
42|Compound_21|Compounds_3D_F|sdf|8|dock5|1
     RDKit          3D

 10  9  0  0  0  0  0  0  0  0999 V2000
   -5.1904  -15.2569    9.4378 O   0  0  0  0  0  0  0  0  0  0  0  0
   -5.9222  -15.9722   10.4348 C   0  0  0  0  0  0  0  0  0  0  0  0
   -5.1757  -15.8976   11.7677 C   0  0  0  0  0  0  0  0  0  0  0  0
   -4.8571  -14.5009   12.0718 N   0  0  0  0  0  0  0  0  0  0  0  0
   -5.8458  -13.5904   12.1724 C   0  0  0  0  0  0  0  0  0  0  0  0
   -6.9993  -13.9279   12.0108 O   0  0  0  0  0  0  0  0  0  0  0  0
   -5.5043  -12.0928   12.4985 B   0  0  0  0  0  0  0  0  0  0  0  0
   -6.0562  -16.4734   12.8784 C   0  0  0  0  0  0  0  0  0  0  0  0
   -3.8807  -16.7075   11.6725 C   0  0  0  0  0  0  0  0  0  0  0  0
   -3.1092  -16.2449   10.5622 O   0  0  0  0  0  0  0  0  0  0  0  0
  1  2  1  0
  2  3  1  0
  3  4  1  0
  3  8  1  0
  3  9  1  0
  4  5  1  0
  5  6  2  0
  5  7  1  0
  9 10  1  0
M  END
>  <Gold.Gold.Protein.RotatedWaterAtoms>  (505) 


>  <Gold.Id.Protein>  (505) 


>  <Gold.PLP.Chemscore.CHOScore>  (505) 
0.0000

>  <Gold.PLP.Chemscore.Hbond>  (505) 
3.7088

>  <Gold.PLP.Chemscore.Internal.Correction>  (505) 
0.0007

>  <Gold.PLP.Chemscore.Metal>  (505) 
0.0000

>  <Gold.PLP.Fitness>  (505) 
39.5863

>  <Gold.PLP.PLP>  (505) 
-28.6172

>  <Gold.PLP.ligand.clash>  (505) 
0.0000

>  <Gold.PLP.ligand.torsion>  (505) 
0.0790

>  <Gold.PLP.part.buried>  (505) 
-5.4907

>  <Gold.PLP.part.hbond>  (505) 
-5.0371

>  <Gold.PLP.part.metal>  (505) 
0.0000

>  <Gold.PLP.part.nonpolar>  (505) 
-18.6835

>  <Gold.PLP.part.repulsive>  (505) 
0.2165

>  <Gold.Protein.RotatedAtoms>  (505) 


>  <Gold.Protein.RotatedTorsions>  (505) 


>  <Gold.Protein.RotatedWaterAtoms>  (505) 


>  <Gold.Version>  (505) 
5.3.0

>  <PLP.Chemscore.CHOScore>  (505) 


>  <PLP.Chemscore.Hbond>  (505) 


>  <PLP.Chemscore.Internal.Correction>  (505) 


>  <PLP.Chemscore.Metal>  (505) 


>  <PLP.Fitness>  (505) 


>  <PLP.PLP>  (505) 


>  <PLP.ligand.clash>  (505) 


>  <PLP.ligand.torsion>  (505) 


>  <PLP.part.buried>  (505) 


>  <PLP.part.hbond>  (505) 


>  <PLP.part.metal>  (505) 


>  <PLP.part.nonpolar>  (505) 


>  <PLP.part.repulsive>  (505) 


>  <Version>  (505) 


$$$$
94|664022_40|Aromatic_carboxylic_acids_F|sdf|24|dock1|1
     RDKit          3D

 12 12  0  0  0  0  0  0  0  0999 V2000
   -8.2596  -17.1212   11.4595 C   0  0  0  0  0  0  0  0  0  0  0  0
   -7.6366  -15.8367   11.6688 N   0  0  0  0  0  0  0  0  0  0  0  0
   -8.3409  -14.6553   11.5719 C   0  0  0  0  0  0  0  0  0  0  0  0
   -9.5296  -14.5547   11.2978 O   0  0  0  0  0  0  0  0  0  0  0  0
   -7.5420  -13.4431   11.8503 C   0  0  0  0  0  0  0  0  0  0  0  0
   -8.1627  -12.1983   11.6738 C   0  0  0  0  0  0  0  0  0  0  0  0
   -7.4390  -11.0301   11.9055 C   0  0  0  0  0  0  0  0  0  0  0  0
   -6.1069  -11.0910   12.3103 C   0  0  0  0  0  0  0  0  0  0  0  0
   -5.4897  -12.3324   12.4853 C   0  0  0  0  0  0  0  0  0  0  0  0
   -6.2035  -13.5136   12.2549 C   0  0  0  0  0  0  0  0  0  0  0  0
   -5.3062  -15.1564   12.5638 Br  0  0  0  0  0  0  0  0  0  0  0  0
   -8.1960   -9.5005   11.6887 Cl  0  0  0  0  0  0  0  0  0  0  0  0
  1  2  1  0
  2  3  1  0
  3  4  2  0
  3  5  1  0
  5  6  2  0
  5 10  1  0
  6  7  1  0
  7  8  2  0
  7 12  1  0
  8  9  1  0
  9 10  2  0
 10 11  1  0
M  END
>  <Gold.Gold.Protein.RotatedWaterAtoms>  (506) 


>  <Gold.Id.Protein>  (506) 


>  <Gold.PLP.Chemscore.CHOScore>  (506) 
0.0000

>  <Gold.PLP.Chemscore.Hbond>  (506) 
0.4160

>  <Gold.PLP.Chemscore.Internal.Correction>  (506) 
0.0004

>  <Gold.PLP.Chemscore.Metal>  (506) 
0.0000

>  <Gold.PLP.Fitness>  (506) 
48.9046

>  <Gold.PLP.PLP>  (506) 
-47.6744

>  <Gold.PLP.ligand.clash>  (506) 
0.0000

>  <Gold.PLP.ligand.torsion>  (506) 
0.0091

>  <Gold.PLP.part.buried>  (506) 
-7.3578

>  <Gold.PLP.part.hbond>  (506) 
-0.5127

>  <Gold.PLP.part.metal>  (506) 
0.0000

>  <Gold.PLP.part.nonpolar>  (506) 
-40.3098

>  <Gold.PLP.part.repulsive>  (506) 
0.1684

>  <Gold.Protein.RotatedAtoms>  (506) 


>  <Gold.Protein.RotatedTorsions>  (506) 


>  <Gold.Protein.RotatedWaterAtoms>  (506) 


>  <Gold.Version>  (506) 
5.3.0

>  <PLP.Chemscore.CHOScore>  (506) 


>  <PLP.Chemscore.Hbond>  (506) 


>  <PLP.Chemscore.Internal.Correction>  (506) 


>  <PLP.Chemscore.Metal>  (506) 


>  <PLP.Fitness>  (506) 


>  <PLP.PLP>  (506) 


>  <PLP.ligand.clash>  (506) 


>  <PLP.ligand.torsion>  (506) 


>  <PLP.part.buried>  (506) 


>  <PLP.part.hbond>  (506) 


>  <PLP.part.metal>  (506) 


>  <PLP.part.nonpolar>  (506) 


>  <PLP.part.repulsive>  (506) 


>  <RMSD>  (506) 
0.30972197429

>  <Torsion>  (506) 
172.929186758

>  <TorsionO>  (506) 
24.4968065243

>  <TorsionR>  (506) 
162.574006718

>  <Version>  (506) 


>  <product>  (506) 
42|Compound_21|Compounds_3D_F|sdf|8|dock5|1

>  <rmsd>  (506) 
-1

$$$$
110|565385_49|Aromatic_carboxylic_acids_F|sdf|29|dock1|1
     RDKit          3D

 13 13  0  0  0  0  0  0  0  0999 V2000
  -10.1118  -17.9021   11.6320 C   0  0  0  0  0  0  0  0  0  0  0  0
   -9.7537  -16.5043   11.6546 N   0  0  0  0  0  0  0  0  0  0  0  0
   -8.4330  -16.1187   11.7930 C   0  0  0  0  0  0  0  0  0  0  0  0
   -7.5159  -16.9298   11.9008 O   0  0  0  0  0  0  0  0  0  0  0  0
   -8.1234  -14.6552   11.8105 C   0  0  0  0  0  0  0  0  0  0  0  0
   -9.0636  -13.6551   11.5375 C   0  0  0  0  0  0  0  0  0  0  0  0
   -8.6966  -12.3009   11.5726 C   0  0  0  0  0  0  0  0  0  0  0  0
   -7.3879  -11.9195   11.8809 C   0  0  0  0  0  0  0  0  0  0  0  0
   -6.4486  -12.9235   12.1551 C   0  0  0  0  0  0  0  0  0  0  0  0
   -6.8098  -14.2750   12.1207 C   0  0  0  0  0  0  0  0  0  0  0  0
   -4.6444  -12.5025   12.5849 Br  0  0  0  0  0  0  0  0  0  0  0  0
   -6.9476  -10.6242   11.9372 O   0  0  0  0  0  0  0  0  0  0  0  0
   -7.9020   -9.5910   11.7256 C   0  0  0  0  0  0  0  0  0  0  0  0
  1  2  1  0
  2  3  1  0
  3  4  2  0
  3  5  1  0
  5  6  2  0
  5 10  1  0
  6  7  1  0
  7  8  2  0
  8  9  1  0
  8 12  1  0
  9 10  2  0
  9 11  1  0
 12 13  1  0
M  END
>  <Gold.Gold.Protein.RotatedWaterAtoms>  (507) 


>  <Gold.Id.Protein>  (507) 


>  <Gold.PLP.Chemscore.CHOScore>  (507) 
0.0000

>  <Gold.PLP.Chemscore.Hbond>  (507) 
1.0000

>  <Gold.PLP.Chemscore.Internal.Correction>  (507) 
0.0000

>  <Gold.PLP.Chemscore.Metal>  (507) 
0.0000

>  <Gold.PLP.Fitness>  (507) 
43.9775

>  <Gold.PLP.PLP>  (507) 
-41.0517

>  <Gold.PLP.ligand.clash>  (507) 
0.0000

>  <Gold.PLP.ligand.torsion>  (507) 
0.0371

>  <Gold.PLP.part.buried>  (507) 
-3.7367

>  <Gold.PLP.part.hbond>  (507) 
-1.0000

>  <Gold.PLP.part.metal>  (507) 
0.0000

>  <Gold.PLP.part.nonpolar>  (507) 
-36.7483

>  <Gold.PLP.part.repulsive>  (507) 
0.4054

>  <Gold.Protein.RotatedAtoms>  (507) 


>  <Gold.Protein.RotatedTorsions>  (507) 


>  <Gold.Protein.RotatedWaterAtoms>  (507) 


>  <Gold.Version>  (507) 
5.3.0

>  <PLP.Chemscore.CHOScore>  (507) 


>  <PLP.Chemscore.Hbond>  (507) 


>  <PLP.Chemscore.Internal.Correction>  (507) 


>  <PLP.Chemscore.Metal>  (507) 


>  <PLP.Fitness>  (507) 


>  <PLP.PLP>  (507) 


>  <PLP.ligand.clash>  (507) 


>  <PLP.ligand.torsion>  (507) 


>  <PLP.part.buried>  (507) 


>  <PLP.part.hbond>  (507) 


>  <PLP.part.metal>  (507) 


>  <PLP.part.nonpolar>  (507) 


>  <PLP.part.repulsive>  (507) 


>  <RMSD>  (507) 
0.319376411377

>  <Torsion>  (507) 
169.460450784

>  <TorsionO>  (507) 
9.7963905484

>  <TorsionR>  (507) 
179.256841332

>  <Version>  (507) 


>  <product>  (507) 
42|Compound_21|Compounds_3D_F|sdf|8|dock5|1

>  <rmsd>  (507) 
-1

$$$$
128|137677_56|Aromatic_carboxylic_acids_F|sdf|33|dock1|1
     RDKit          3D

 11 11  0  0  0  0  0  0  0  0999 V2000
   -8.6116  -16.1544   11.8887 C   0  0  0  0  0  0  0  0  0  0  0  0
   -7.9978  -14.8484   11.9215 N   0  0  0  0  0  0  0  0  0  0  0  0
   -8.7778  -13.7008   11.8756 C   0  0  0  0  0  0  0  0  0  0  0  0
  -10.0002  -13.7896   11.8139 O   0  0  0  0  0  0  0  0  0  0  0  0
   -8.0808  -12.3609   11.9017 C   0  0  0  0  0  0  0  0  0  0  0  0
   -8.7916  -11.1851   11.5813 C   0  0  0  0  0  0  0  0  0  0  0  0
   -8.1781   -9.9267   11.5989 C   0  0  0  0  0  0  0  0  0  0  0  0
   -6.8391   -9.8089   11.9369 C   0  0  0  0  0  0  0  0  0  0  0  0
   -6.1124  -10.9502   12.2575 C   0  0  0  0  0  0  0  0  0  0  0  0
   -6.7171  -12.2196   12.2428 C   0  0  0  0  0  0  0  0  0  0  0  0
   -5.5419  -13.6455   12.7121 Br  0  0  0  0  0  0  0  0  0  0  0  0
  1  2  1  0
  2  3  1  0
  3  4  2  0
  3  5  1  0
  5  6  2  0
  5 10  1  0
  6  7  1  0
  7  8  2  0
  8  9  1  0
  9 10  2  0
 10 11  1  0
M  END
>  <Gold.Gold.Protein.RotatedWaterAtoms>  (508) 


>  <Gold.Id.Protein>  (508) 


>  <Gold.PLP.Chemscore.CHOScore>  (508) 
0.0000

>  <Gold.PLP.Chemscore.Hbond>  (508) 
1.0000

>  <Gold.PLP.Chemscore.Internal.Correction>  (508) 
0.0000

>  <Gold.PLP.Chemscore.Metal>  (508) 
0.0000

>  <Gold.PLP.Fitness>  (508) 
45.2899

>  <Gold.PLP.PLP>  (508) 
-42.4444

>  <Gold.PLP.ligand.clash>  (508) 
0.0000

>  <Gold.PLP.ligand.torsion>  (508) 
0.0772

>  <Gold.PLP.part.buried>  (508) 
-6.4690

>  <Gold.PLP.part.hbond>  (508) 
-0.6863

>  <Gold.PLP.part.metal>  (508) 
0.0000

>  <Gold.PLP.part.nonpolar>  (508) 
-34.8280

>  <Gold.PLP.part.repulsive>  (508) 
0.1963

>  <Gold.Protein.RotatedAtoms>  (508) 


>  <Gold.Protein.RotatedTorsions>  (508) 


>  <Gold.Protein.RotatedWaterAtoms>  (508) 


>  <Gold.Version>  (508) 
5.3.0

>  <PLP.Chemscore.CHOScore>  (508) 


>  <PLP.Chemscore.Hbond>  (508) 


>  <PLP.Chemscore.Internal.Correction>  (508) 


>  <PLP.Chemscore.Metal>  (508) 


>  <PLP.Fitness>  (508) 


>  <PLP.PLP>  (508) 


>  <PLP.ligand.clash>  (508) 


>  <PLP.ligand.torsion>  (508) 


>  <PLP.part.buried>  (508) 


>  <PLP.part.hbond>  (508) 


>  <PLP.part.metal>  (508) 


>  <PLP.part.nonpolar>  (508) 


>  <PLP.part.repulsive>  (508) 


>  <RMSD>  (508) 
0.428070490903

>  <Torsion>  (508) 
152.444048788

>  <TorsionO>  (508) 
39.0580871276

>  <TorsionR>  (508) 
168.497864085

>  <Version>  (508) 


>  <product>  (508) 
42|Compound_21|Compounds_3D_F|sdf|8|dock5|1

>  <rmsd>  (508) 
-1

$$$$
974|750794_1404|Aromatic_primary_amines_F|sdf|194|dock3|1
     RDKit          3D

 14 14  0  0  0  0  0  0  0  0999 V2000
  -13.6355  -18.1936    9.4145 C   0  0  0  0  0  0  0  0  0  0  0  0
  -13.2544  -19.4497   10.1732 C   0  0  0  0  0  0  0  0  0  0  0  0
  -11.8731  -19.3506   10.5383 O   0  0  0  0  0  0  0  0  0  0  0  0
  -11.6148  -18.5085   11.5823 C   0  0  0  0  0  0  0  0  0  0  0  0
  -12.3947  -18.2810   12.5004 O   0  0  0  0  0  0  0  0  0  0  0  0
  -10.3031  -17.8985   11.4902 C   0  0  0  0  0  0  0  0  0  0  0  0
   -9.1673  -18.4974   10.9931 C   0  0  0  0  0  0  0  0  0  0  0  0
   -8.1448  -17.6055   11.0758 O   0  0  0  0  0  0  0  0  0  0  0  0
   -8.7110  -16.4917   11.6237 C   0  0  0  0  0  0  0  0  0  0  0  0
   -9.9933  -16.6110   11.8915 N   0  0  0  0  0  0  0  0  0  0  0  0
   -7.9611  -15.3718   11.8549 N   0  0  0  0  0  0  0  0  0  0  0  0
   -8.5046  -14.1249   12.0676 C   0  0  0  0  0  0  0  0  0  0  0  0
   -9.6950  -13.8313   12.1035 O   0  0  0  0  0  0  0  0  0  0  0  0
   -7.4448  -13.0785   12.3021 C   0  0  0  0  0  0  0  0  0  0  0  0
  1  2  1  0
  2  3  1  0
  3  4  1  0
  4  5  2  0
  4  6  1  0
  6  7  2  0
  6 10  1  0
  7  8  1  0
  8  9  1  0
  9 10  2  0
  9 11  1  0
 11 12  1  0
 12 13  2  0
 12 14  1  0
M  END
>  <Gold.Gold.Protein.RotatedWaterAtoms>  (509) 


>  <Gold.Id.Protein>  (509) 


>  <Gold.PLP.Chemscore.CHOScore>  (509) 
0.0000

>  <Gold.PLP.Chemscore.Hbond>  (509) 
2.0000

>  <Gold.PLP.Chemscore.Internal.Correction>  (509) 
0.0053

>  <Gold.PLP.Chemscore.Metal>  (509) 
0.0000

>  <Gold.PLP.Fitness>  (509) 
36.8047

>  <Gold.PLP.PLP>  (509) 
-32.7996

>  <Gold.PLP.ligand.clash>  (509) 
0.0000

>  <Gold.PLP.ligand.torsion>  (509) 
1.0001

>  <Gold.PLP.part.buried>  (509) 
-6.5206

>  <Gold.PLP.part.hbond>  (509) 
-2.9156

>  <Gold.PLP.part.metal>  (509) 
0.0000

>  <Gold.PLP.part.nonpolar>  (509) 
-23.4080

>  <Gold.PLP.part.repulsive>  (509) 
0.3100

>  <Gold.Protein.RotatedAtoms>  (509) 


>  <Gold.Protein.RotatedTorsions>  (509) 


>  <Gold.Protein.RotatedWaterAtoms>  (509) 


>  <Gold.Version>  (509) 
5.3.0

>  <PLP.Chemscore.CHOScore>  (509) 


>  <PLP.Chemscore.Hbond>  (509) 


>  <PLP.Chemscore.Internal.Correction>  (509) 


>  <PLP.Chemscore.Metal>  (509) 


>  <PLP.Fitness>  (509) 


>  <PLP.PLP>  (509) 


>  <PLP.ligand.clash>  (509) 


>  <PLP.ligand.torsion>  (509) 


>  <PLP.part.buried>  (509) 


>  <PLP.part.hbond>  (509) 


>  <PLP.part.metal>  (509) 


>  <PLP.part.nonpolar>  (509) 


>  <PLP.part.repulsive>  (509) 


>  <RMSD>  (509) 
0.499949349045

>  <Torsion>  (509) 
159.973716791

>  <TorsionO>  (509) 
19.1052109979

>  <TorsionR>  (509) 
179.078927789

>  <Version>  (509) 


>  <product>  (509) 
42|Compound_21|Compounds_3D_F|sdf|8|dock5|1

>  <rmsd>  (509) 
-1

$$$$
1884|M3006_1781|Aromatic_primary_amines_F|sdf|361|dock3|1
     RDKit          3D

 31 34  0  0  0  0  0  0  0  0999 V2000
  -14.4210  -19.8971    8.7934 C   0  0  0  0  0  0  0  0  0  0  0  0
  -13.9762  -19.4927   10.1894 C   0  0  0  0  0  0  0  0  0  0  0  0
  -14.1356  -20.6409   11.1817 C   0  0  0  0  0  0  0  0  0  0  0  0
  -13.5197  -20.3070   12.5189 C   0  0  0  0  0  0  0  0  0  0  0  0
  -12.9307  -19.2724   12.7954 O   0  0  0  0  0  0  0  0  0  0  0  0
  -13.7110  -21.3451   13.3845 O   0  0  0  0  0  0  0  0  0  0  0  0
  -12.9425  -21.2698   14.5900 C   0  0  0  0  0  0  0  0  0  0  0  0
  -12.8849  -22.6189   15.2889 C   0  0  0  0  0  0  0  0  0  0  0  0
  -11.6552  -22.4172   16.1494 C   0  0  0  0  0  0  0  0  0  0  0  0
  -11.2420  -23.7410   16.7624 C   0  0  0  0  0  0  0  0  0  0  0  0
  -12.3024  -24.2223   17.5862 O   0  0  0  0  0  0  0  0  0  0  0  0
  -13.7888  -24.3384   16.9603 P   0  0  0  0  0  0  0  0  0  0  0  0
  -14.8775  -24.6795   17.9243 O   0  0  0  0  0  0  0  0  0  0  0  0
  -13.9839  -22.9641   16.1174 O   0  0  0  0  0  0  0  0  0  0  0  0
  -13.5991  -25.4435   15.8075 O   0  0  0  0  0  0  0  0  0  0  0  0
  -10.6922  -21.8161   15.2889 O   0  0  0  0  0  0  0  0  0  0  0  0
  -11.4338  -20.9664   14.3653 C   0  0  0  0  0  0  0  0  0  0  0  0
  -10.9052  -21.2017   13.0342 N   0  0  0  0  0  0  0  0  0  0  0  0
  -10.7814  -22.4114   12.4013 C   0  0  0  0  0  0  0  0  0  0  0  0
  -10.2640  -22.2918   11.1953 N   0  0  0  0  0  0  0  0  0  0  0  0
  -10.0274  -20.9476   11.0424 C   0  0  0  0  0  0  0  0  0  0  0  0
  -10.4203  -20.2487   12.1733 C   0  0  0  0  0  0  0  0  0  0  0  0
  -10.3338  -18.9216   12.3641 N   0  0  0  0  0  0  0  0  0  0  0  0
   -9.8057  -18.2730   11.3024 C   0  0  0  0  0  0  0  0  0  0  0  0
   -9.3808  -18.8370   10.1545 N   0  0  0  0  0  0  0  0  0  0  0  0
   -9.4895  -20.1691   10.0244 C   0  0  0  0  0  0  0  0  0  0  0  0
   -9.0330  -20.6622    8.8349 O   0  0  0  0  0  0  0  0  0  0  0  0
   -9.7222  -16.8901   11.4793 N   0  0  0  0  0  0  0  0  0  0  0  0
   -8.5796  -16.1798   11.7761 C   0  0  0  0  0  0  0  0  0  0  0  0
   -7.4445  -16.6221   11.9131 O   0  0  0  0  0  0  0  0  0  0  0  0
   -8.8524  -14.7024   11.8973 C   0  0  0  0  0  0  0  0  0  0  0  0
  1  2  1  0
  2  3  1  0
  3  4  1  0
  4  5  2  0
  4  6  1  0
  6  7  1  0
  7  8  1  0
  7 17  1  0
  8  9  1  0
  8 14  1  0
  9 10  1  0
  9 16  1  0
 10 11  1  0
 11 12  1  0
 12 13  2  0
 12 14  1  0
 12 15  1  0
 16 17  1  0
 17 18  1  0
 18 19  1  0
 18 22  1  0
 19 20  2  0
 20 21  1  0
 21 22  2  0
 21 26  1  0
 22 23  1  0
 23 24  2  0
 24 25  1  0
 24 28  1  0
 25 26  2  0
 26 27  1  0
 28 29  1  0
 29 30  2  0
 29 31  1  0
M  END
>  <Gold.Gold.Protein.RotatedWaterAtoms>  (510) 


>  <Gold.Id.Protein>  (510) 


>  <Gold.PLP.Chemscore.CHOScore>  (510) 
0.0000

>  <Gold.PLP.Chemscore.Hbond>  (510) 
1.2080

>  <Gold.PLP.Chemscore.Internal.Correction>  (510) 
0.1232

>  <Gold.PLP.Chemscore.Metal>  (510) 
0.0000

>  <Gold.PLP.Fitness>  (510) 
47.7145

>  <Gold.PLP.PLP>  (510) 
-46.0218

>  <Gold.PLP.ligand.clash>  (510) 
0.0000

>  <Gold.PLP.ligand.torsion>  (510) 
1.0272

>  <Gold.PLP.part.buried>  (510) 
-2.2958

>  <Gold.PLP.part.hbond>  (510) 
-4.0214

>  <Gold.PLP.part.metal>  (510) 
0.0000

>  <Gold.PLP.part.nonpolar>  (510) 
-41.4699

>  <Gold.PLP.part.repulsive>  (510) 
0.9524

>  <Gold.Protein.RotatedAtoms>  (510) 


>  <Gold.Protein.RotatedTorsions>  (510) 


>  <Gold.Protein.RotatedWaterAtoms>  (510) 


>  <Gold.Version>  (510) 
5.3.0

>  <PLP.Chemscore.CHOScore>  (510) 


>  <PLP.Chemscore.Hbond>  (510) 


>  <PLP.Chemscore.Internal.Correction>  (510) 


>  <PLP.Chemscore.Metal>  (510) 


>  <PLP.Fitness>  (510) 


>  <PLP.PLP>  (510) 


>  <PLP.ligand.clash>  (510) 


>  <PLP.ligand.torsion>  (510) 


>  <PLP.part.buried>  (510) 


>  <PLP.part.hbond>  (510) 


>  <PLP.part.metal>  (510) 


>  <PLP.part.nonpolar>  (510) 


>  <PLP.part.repulsive>  (510) 


>  <RMSD>  (510) 
0.291955871297

>  <Torsion>  (510) 
171.923704933

>  <TorsionO>  (510) 
6.03609353985

>  <TorsionR>  (510) 
177.959798473

>  <Version>  (510) 


>  <product>  (510) 
42|Compound_21|Compounds_3D_F|sdf|8|dock5|1

>  <rmsd>  (510) 
-1

$$$$
193|32168_281|Aromatic_primary_amines_F|sdf|39|dock6|1
     RDKit          3D

 23 25  0  0  0  0  0  0  0  0999 V2000
   -7.8439  -12.1461   11.8919 C   0  0  0  0  0  0  0  0  0  0  0  0
   -8.5691  -13.4472   11.6781 C   0  0  0  0  0  0  0  0  0  0  0  0
   -9.7886  -13.4981   11.5208 O   0  0  0  0  0  0  0  0  0  0  0  0
   -7.7264  -14.5390   11.7020 N   0  0  0  0  0  0  0  0  0  0  0  0
   -8.1889  -15.8197   11.5323 C   0  0  0  0  0  0  0  0  0  0  0  0
   -9.4747  -16.2039   11.8163 N   0  0  0  0  0  0  0  0  0  0  0  0
   -9.5964  -17.5375   11.5379 C   0  0  0  0  0  0  0  0  0  0  0  0
  -10.6643  -18.4283   11.6415 C   0  0  0  0  0  0  0  0  0  0  0  0
  -10.4051  -19.7586   11.2778 C   0  0  0  0  0  0  0  0  0  0  0  0
   -9.1530  -20.1507   10.7795 C   0  0  0  0  0  0  0  0  0  0  0  0
   -8.1017  -19.2294   10.6839 C   0  0  0  0  0  0  0  0  0  0  0  0
   -8.3349  -17.9032   11.0783 C   0  0  0  0  0  0  0  0  0  0  0  0
   -7.4773  -16.8281   11.0838 N   0  0  0  0  0  0  0  0  0  0  0  0
   -8.8530  -21.7658   10.2429 Cl  0  0  0  0  0  0  0  0  0  0  0  0
  -11.4669  -20.6323   11.3734 O   0  0  0  0  0  0  0  0  0  0  0  0
  -12.5262  -20.4408   10.5053 C   0  0  0  0  0  0  0  0  0  0  0  0
  -13.3188  -19.2846   10.5304 C   0  0  0  0  0  0  0  0  0  0  0  0
  -14.3665  -19.1344    9.6224 C   0  0  0  0  0  0  0  0  0  0  0  0
  -14.6219  -20.1279    8.6796 C   0  0  0  0  0  0  0  0  0  0  0  0
  -13.8238  -21.2756    8.6345 C   0  0  0  0  0  0  0  0  0  0  0  0
  -12.7674  -21.4342    9.5416 C   0  0  0  0  0  0  0  0  0  0  0  0
  -11.7588  -22.8458    9.4996 Cl  0  0  0  0  0  0  0  0  0  0  0  0
  -14.1988  -22.4584    7.4296 Cl  0  0  0  0  0  0  0  0  0  0  0  0
  1  2  1  0
  2  3  2  0
  2  4  1  0
  4  5  1  0
  5  6  1  0
  5 13  2  0
  6  7  1  0
  7  8  2  0
  7 12  1  0
  8  9  1  0
  9 10  2  0
  9 15  1  0
 10 11  1  0
 10 14  1  0
 11 12  2  0
 12 13  1  0
 15 16  1  0
 16 17  2  0
 16 21  1  0
 17 18  1  0
 18 19  2  0
 19 20  1  0
 20 21  2  0
 20 23  1  0
 21 22  1  0
M  END
>  <Gold.Gold.Protein.RotatedWaterAtoms>  (511) 


>  <Gold.Id.Protein>  (511) 


>  <Gold.PLP.Chemscore.CHOScore>  (511) 
0.0000

>  <Gold.PLP.Chemscore.Hbond>  (511) 
1.0000

>  <Gold.PLP.Chemscore.Internal.Correction>  (511) 
0.0086

>  <Gold.PLP.Chemscore.Metal>  (511) 
0.0000

>  <Gold.PLP.Fitness>  (511) 
50.7139

>  <Gold.PLP.PLP>  (511) 
-48.1706

>  <Gold.PLP.ligand.clash>  (511) 
0.0000

>  <Gold.PLP.ligand.torsion>  (511) 
0.2327

>  <Gold.PLP.part.buried>  (511) 
-6.5205

>  <Gold.PLP.part.hbond>  (511) 
-2.0000

>  <Gold.PLP.part.metal>  (511) 
0.0000

>  <Gold.PLP.part.nonpolar>  (511) 
-39.3857

>  <Gold.PLP.part.repulsive>  (511) 
0.3298

>  <Gold.Protein.RotatedAtoms>  (511) 


>  <Gold.Protein.RotatedTorsions>  (511) 


>  <Gold.Protein.RotatedWaterAtoms>  (511) 


>  <Gold.Version>  (511) 
5.3.0

>  <PLP.Chemscore.CHOScore>  (511) 


>  <PLP.Chemscore.Hbond>  (511) 


>  <PLP.Chemscore.Internal.Correction>  (511) 


>  <PLP.Chemscore.Metal>  (511) 


>  <PLP.Fitness>  (511) 


>  <PLP.PLP>  (511) 


>  <PLP.ligand.clash>  (511) 


>  <PLP.ligand.torsion>  (511) 


>  <PLP.part.buried>  (511) 


>  <PLP.part.hbond>  (511) 


>  <PLP.part.metal>  (511) 


>  <PLP.part.nonpolar>  (511) 


>  <PLP.part.repulsive>  (511) 


>  <RMSD>  (511) 
0.439733510035

>  <Torsion>  (511) 
177.672185574

>  <TorsionO>  (511) 
4.31728583372

>  <TorsionR>  (511) 
173.35489974

>  <Version>  (511) 


>  <product>  (511) 
42|Compound_21|Compounds_3D_F|sdf|8|dock5|1

>  <rmsd>  (511) 
-1

$$$$
2|Compound_1|Compounds_3D_F|sdf|1|dock3|1
     RDKit          3D

  5  4  0  0  0  0  0  0  0  0999 V2000
   -5.6004  -12.3817   12.5007 B   0  0  0  0  0  0  0  0  0  0  0  0
   -5.7099  -13.9438   12.3929 C   0  0  0  0  0  0  0  0  0  0  0  0
   -6.7917  -14.4840   12.4829 O   0  0  0  0  0  0  0  0  0  0  0  0
   -4.6005  -14.6852   12.2004 N   0  0  0  0  0  0  0  0  0  0  0  0
   -4.7029  -16.1435   12.1001 C   0  0  0  0  0  0  0  0  0  0  0  0
  1  2  1  0
  2  3  2  0
  2  4  1  0
  4  5  1  0
M  END
>  <Gold.Gold.Protein.RotatedWaterAtoms>  (512) 


>  <Gold.Id.Protein>  (512) 


>  <Gold.PLP.Chemscore.CHOScore>  (512) 
0.0000

>  <Gold.PLP.Chemscore.Hbond>  (512) 
1.0000

>  <Gold.PLP.Chemscore.Internal.Correction>  (512) 
0.0000

>  <Gold.PLP.Chemscore.Metal>  (512) 
0.0000

>  <Gold.PLP.Fitness>  (512) 
20.6847

>  <Gold.PLP.PLP>  (512) 
-17.6847

>  <Gold.PLP.ligand.clash>  (512) 
0.0000

>  <Gold.PLP.ligand.torsion>  (512) 
0.0000

>  <Gold.PLP.part.buried>  (512) 
-3.8416

>  <Gold.PLP.part.hbond>  (512) 
-2.0000

>  <Gold.PLP.part.metal>  (512) 
0.0000

>  <Gold.PLP.part.nonpolar>  (512) 
-11.9898

>  <Gold.PLP.part.repulsive>  (512) 
0.2624

>  <Gold.Protein.RotatedAtoms>  (512) 


>  <Gold.Protein.RotatedTorsions>  (512) 


>  <Gold.Protein.RotatedWaterAtoms>  (512) 


>  <Gold.Version>  (512) 
5.3.0

>  <PLP.Chemscore.CHOScore>  (512) 


>  <PLP.Chemscore.Hbond>  (512) 


>  <PLP.Chemscore.Internal.Correction>  (512) 


>  <PLP.Chemscore.Metal>  (512) 


>  <PLP.Fitness>  (512) 


>  <PLP.PLP>  (512) 


>  <PLP.ligand.clash>  (512) 


>  <PLP.ligand.torsion>  (512) 


>  <PLP.part.buried>  (512) 


>  <PLP.part.hbond>  (512) 


>  <PLP.part.metal>  (512) 


>  <PLP.part.nonpolar>  (512) 


>  <PLP.part.repulsive>  (512) 


>  <Version>  (512) 


$$$$
94|664022_40|Aromatic_carboxylic_acids_F|sdf|24|dock1|1
     RDKit          3D

 12 12  0  0  0  0  0  0  0  0999 V2000
   -8.2596  -17.1212   11.4595 C   0  0  0  0  0  0  0  0  0  0  0  0
   -7.6366  -15.8367   11.6688 N   0  0  0  0  0  0  0  0  0  0  0  0
   -8.3409  -14.6553   11.5719 C   0  0  0  0  0  0  0  0  0  0  0  0
   -9.5296  -14.5547   11.2978 O   0  0  0  0  0  0  0  0  0  0  0  0
   -7.5420  -13.4431   11.8503 C   0  0  0  0  0  0  0  0  0  0  0  0
   -8.1627  -12.1983   11.6738 C   0  0  0  0  0  0  0  0  0  0  0  0
   -7.4390  -11.0301   11.9055 C   0  0  0  0  0  0  0  0  0  0  0  0
   -6.1069  -11.0910   12.3103 C   0  0  0  0  0  0  0  0  0  0  0  0
   -5.4897  -12.3324   12.4853 C   0  0  0  0  0  0  0  0  0  0  0  0
   -6.2035  -13.5136   12.2549 C   0  0  0  0  0  0  0  0  0  0  0  0
   -5.3062  -15.1564   12.5638 Br  0  0  0  0  0  0  0  0  0  0  0  0
   -8.1960   -9.5005   11.6887 Cl  0  0  0  0  0  0  0  0  0  0  0  0
  1  2  1  0
  2  3  1  0
  3  4  2  0
  3  5  1  0
  5  6  2  0
  5 10  1  0
  6  7  1  0
  7  8  2  0
  7 12  1  0
  8  9  1  0
  9 10  2  0
 10 11  1  0
M  END
>  <Gold.Gold.Protein.RotatedWaterAtoms>  (513) 


>  <Gold.Id.Protein>  (513) 


>  <Gold.PLP.Chemscore.CHOScore>  (513) 
0.0000

>  <Gold.PLP.Chemscore.Hbond>  (513) 
0.4160

>  <Gold.PLP.Chemscore.Internal.Correction>  (513) 
0.0004

>  <Gold.PLP.Chemscore.Metal>  (513) 
0.0000

>  <Gold.PLP.Fitness>  (513) 
48.9046

>  <Gold.PLP.PLP>  (513) 
-47.6744

>  <Gold.PLP.ligand.clash>  (513) 
0.0000

>  <Gold.PLP.ligand.torsion>  (513) 
0.0091

>  <Gold.PLP.part.buried>  (513) 
-7.3578

>  <Gold.PLP.part.hbond>  (513) 
-0.5127

>  <Gold.PLP.part.metal>  (513) 
0.0000

>  <Gold.PLP.part.nonpolar>  (513) 
-40.3098

>  <Gold.PLP.part.repulsive>  (513) 
0.1684

>  <Gold.Protein.RotatedAtoms>  (513) 


>  <Gold.Protein.RotatedTorsions>  (513) 


>  <Gold.Protein.RotatedWaterAtoms>  (513) 


>  <Gold.Version>  (513) 
5.3.0

>  <PLP.Chemscore.CHOScore>  (513) 


>  <PLP.Chemscore.Hbond>  (513) 


>  <PLP.Chemscore.Internal.Correction>  (513) 


>  <PLP.Chemscore.Metal>  (513) 


>  <PLP.Fitness>  (513) 


>  <PLP.PLP>  (513) 


>  <PLP.ligand.clash>  (513) 


>  <PLP.ligand.torsion>  (513) 


>  <PLP.part.buried>  (513) 


>  <PLP.part.hbond>  (513) 


>  <PLP.part.metal>  (513) 


>  <PLP.part.nonpolar>  (513) 


>  <PLP.part.repulsive>  (513) 


>  <RMSD>  (513) 
0.30972197429

>  <Torsion>  (513) 
172.929186758

>  <TorsionO>  (513) 
24.4968065243

>  <TorsionR>  (513) 
162.574006718

>  <Version>  (513) 


>  <product>  (513) 
2|Compound_1|Compounds_3D_F|sdf|1|dock3|1

>  <rmsd>  (513) 
-1

$$$$
110|565385_49|Aromatic_carboxylic_acids_F|sdf|29|dock1|1
     RDKit          3D

 13 13  0  0  0  0  0  0  0  0999 V2000
  -10.1118  -17.9021   11.6320 C   0  0  0  0  0  0  0  0  0  0  0  0
   -9.7537  -16.5043   11.6546 N   0  0  0  0  0  0  0  0  0  0  0  0
   -8.4330  -16.1187   11.7930 C   0  0  0  0  0  0  0  0  0  0  0  0
   -7.5159  -16.9298   11.9008 O   0  0  0  0  0  0  0  0  0  0  0  0
   -8.1234  -14.6552   11.8105 C   0  0  0  0  0  0  0  0  0  0  0  0
   -9.0636  -13.6551   11.5375 C   0  0  0  0  0  0  0  0  0  0  0  0
   -8.6966  -12.3009   11.5726 C   0  0  0  0  0  0  0  0  0  0  0  0
   -7.3879  -11.9195   11.8809 C   0  0  0  0  0  0  0  0  0  0  0  0
   -6.4486  -12.9235   12.1551 C   0  0  0  0  0  0  0  0  0  0  0  0
   -6.8098  -14.2750   12.1207 C   0  0  0  0  0  0  0  0  0  0  0  0
   -4.6444  -12.5025   12.5849 Br  0  0  0  0  0  0  0  0  0  0  0  0
   -6.9476  -10.6242   11.9372 O   0  0  0  0  0  0  0  0  0  0  0  0
   -7.9020   -9.5910   11.7256 C   0  0  0  0  0  0  0  0  0  0  0  0
  1  2  1  0
  2  3  1  0
  3  4  2  0
  3  5  1  0
  5  6  2  0
  5 10  1  0
  6  7  1  0
  7  8  2  0
  8  9  1  0
  8 12  1  0
  9 10  2  0
  9 11  1  0
 12 13  1  0
M  END
>  <Gold.Gold.Protein.RotatedWaterAtoms>  (514) 


>  <Gold.Id.Protein>  (514) 


>  <Gold.PLP.Chemscore.CHOScore>  (514) 
0.0000

>  <Gold.PLP.Chemscore.Hbond>  (514) 
1.0000

>  <Gold.PLP.Chemscore.Internal.Correction>  (514) 
0.0000

>  <Gold.PLP.Chemscore.Metal>  (514) 
0.0000

>  <Gold.PLP.Fitness>  (514) 
43.9775

>  <Gold.PLP.PLP>  (514) 
-41.0517

>  <Gold.PLP.ligand.clash>  (514) 
0.0000

>  <Gold.PLP.ligand.torsion>  (514) 
0.0371

>  <Gold.PLP.part.buried>  (514) 
-3.7367

>  <Gold.PLP.part.hbond>  (514) 
-1.0000

>  <Gold.PLP.part.metal>  (514) 
0.0000

>  <Gold.PLP.part.nonpolar>  (514) 
-36.7483

>  <Gold.PLP.part.repulsive>  (514) 
0.4054

>  <Gold.Protein.RotatedAtoms>  (514) 


>  <Gold.Protein.RotatedTorsions>  (514) 


>  <Gold.Protein.RotatedWaterAtoms>  (514) 


>  <Gold.Version>  (514) 
5.3.0

>  <PLP.Chemscore.CHOScore>  (514) 


>  <PLP.Chemscore.Hbond>  (514) 


>  <PLP.Chemscore.Internal.Correction>  (514) 


>  <PLP.Chemscore.Metal>  (514) 


>  <PLP.Fitness>  (514) 


>  <PLP.PLP>  (514) 


>  <PLP.ligand.clash>  (514) 


>  <PLP.ligand.torsion>  (514) 


>  <PLP.part.buried>  (514) 


>  <PLP.part.hbond>  (514) 


>  <PLP.part.metal>  (514) 


>  <PLP.part.nonpolar>  (514) 


>  <PLP.part.repulsive>  (514) 


>  <RMSD>  (514) 
0.319376411377

>  <Torsion>  (514) 
169.460450784

>  <TorsionO>  (514) 
9.7963905484

>  <TorsionR>  (514) 
179.256841332

>  <Version>  (514) 


>  <product>  (514) 
2|Compound_1|Compounds_3D_F|sdf|1|dock3|1

>  <rmsd>  (514) 
-1

$$$$
128|137677_56|Aromatic_carboxylic_acids_F|sdf|33|dock1|1
     RDKit          3D

 11 11  0  0  0  0  0  0  0  0999 V2000
   -8.6116  -16.1544   11.8887 C   0  0  0  0  0  0  0  0  0  0  0  0
   -7.9978  -14.8484   11.9215 N   0  0  0  0  0  0  0  0  0  0  0  0
   -8.7778  -13.7008   11.8756 C   0  0  0  0  0  0  0  0  0  0  0  0
  -10.0002  -13.7896   11.8139 O   0  0  0  0  0  0  0  0  0  0  0  0
   -8.0808  -12.3609   11.9017 C   0  0  0  0  0  0  0  0  0  0  0  0
   -8.7916  -11.1851   11.5813 C   0  0  0  0  0  0  0  0  0  0  0  0
   -8.1781   -9.9267   11.5989 C   0  0  0  0  0  0  0  0  0  0  0  0
   -6.8391   -9.8089   11.9369 C   0  0  0  0  0  0  0  0  0  0  0  0
   -6.1124  -10.9502   12.2575 C   0  0  0  0  0  0  0  0  0  0  0  0
   -6.7171  -12.2196   12.2428 C   0  0  0  0  0  0  0  0  0  0  0  0
   -5.5419  -13.6455   12.7121 Br  0  0  0  0  0  0  0  0  0  0  0  0
  1  2  1  0
  2  3  1  0
  3  4  2  0
  3  5  1  0
  5  6  2  0
  5 10  1  0
  6  7  1  0
  7  8  2  0
  8  9  1  0
  9 10  2  0
 10 11  1  0
M  END
>  <Gold.Gold.Protein.RotatedWaterAtoms>  (515) 


>  <Gold.Id.Protein>  (515) 


>  <Gold.PLP.Chemscore.CHOScore>  (515) 
0.0000

>  <Gold.PLP.Chemscore.Hbond>  (515) 
1.0000

>  <Gold.PLP.Chemscore.Internal.Correction>  (515) 
0.0000

>  <Gold.PLP.Chemscore.Metal>  (515) 
0.0000

>  <Gold.PLP.Fitness>  (515) 
45.2899

>  <Gold.PLP.PLP>  (515) 
-42.4444

>  <Gold.PLP.ligand.clash>  (515) 
0.0000

>  <Gold.PLP.ligand.torsion>  (515) 
0.0772

>  <Gold.PLP.part.buried>  (515) 
-6.4690

>  <Gold.PLP.part.hbond>  (515) 
-0.6863

>  <Gold.PLP.part.metal>  (515) 
0.0000

>  <Gold.PLP.part.nonpolar>  (515) 
-34.8280

>  <Gold.PLP.part.repulsive>  (515) 
0.1963

>  <Gold.Protein.RotatedAtoms>  (515) 


>  <Gold.Protein.RotatedTorsions>  (515) 


>  <Gold.Protein.RotatedWaterAtoms>  (515) 


>  <Gold.Version>  (515) 
5.3.0

>  <PLP.Chemscore.CHOScore>  (515) 


>  <PLP.Chemscore.Hbond>  (515) 


>  <PLP.Chemscore.Internal.Correction>  (515) 


>  <PLP.Chemscore.Metal>  (515) 


>  <PLP.Fitness>  (515) 


>  <PLP.PLP>  (515) 


>  <PLP.ligand.clash>  (515) 


>  <PLP.ligand.torsion>  (515) 


>  <PLP.part.buried>  (515) 


>  <PLP.part.hbond>  (515) 


>  <PLP.part.metal>  (515) 


>  <PLP.part.nonpolar>  (515) 


>  <PLP.part.repulsive>  (515) 


>  <RMSD>  (515) 
0.428070490903

>  <Torsion>  (515) 
152.444048788

>  <TorsionO>  (515) 
39.0580871276

>  <TorsionR>  (515) 
168.497864085

>  <Version>  (515) 


>  <product>  (515) 
2|Compound_1|Compounds_3D_F|sdf|1|dock3|1

>  <rmsd>  (515) 
-1

$$$$
974|750794_1404|Aromatic_primary_amines_F|sdf|194|dock3|1
     RDKit          3D

 14 14  0  0  0  0  0  0  0  0999 V2000
  -13.6355  -18.1936    9.4145 C   0  0  0  0  0  0  0  0  0  0  0  0
  -13.2544  -19.4497   10.1732 C   0  0  0  0  0  0  0  0  0  0  0  0
  -11.8731  -19.3506   10.5383 O   0  0  0  0  0  0  0  0  0  0  0  0
  -11.6148  -18.5085   11.5823 C   0  0  0  0  0  0  0  0  0  0  0  0
  -12.3947  -18.2810   12.5004 O   0  0  0  0  0  0  0  0  0  0  0  0
  -10.3031  -17.8985   11.4902 C   0  0  0  0  0  0  0  0  0  0  0  0
   -9.1673  -18.4974   10.9931 C   0  0  0  0  0  0  0  0  0  0  0  0
   -8.1448  -17.6055   11.0758 O   0  0  0  0  0  0  0  0  0  0  0  0
   -8.7110  -16.4917   11.6237 C   0  0  0  0  0  0  0  0  0  0  0  0
   -9.9933  -16.6110   11.8915 N   0  0  0  0  0  0  0  0  0  0  0  0
   -7.9611  -15.3718   11.8549 N   0  0  0  0  0  0  0  0  0  0  0  0
   -8.5046  -14.1249   12.0676 C   0  0  0  0  0  0  0  0  0  0  0  0
   -9.6950  -13.8313   12.1035 O   0  0  0  0  0  0  0  0  0  0  0  0
   -7.4448  -13.0785   12.3021 C   0  0  0  0  0  0  0  0  0  0  0  0
  1  2  1  0
  2  3  1  0
  3  4  1  0
  4  5  2  0
  4  6  1  0
  6  7  2  0
  6 10  1  0
  7  8  1  0
  8  9  1  0
  9 10  2  0
  9 11  1  0
 11 12  1  0
 12 13  2  0
 12 14  1  0
M  END
>  <Gold.Gold.Protein.RotatedWaterAtoms>  (516) 


>  <Gold.Id.Protein>  (516) 


>  <Gold.PLP.Chemscore.CHOScore>  (516) 
0.0000

>  <Gold.PLP.Chemscore.Hbond>  (516) 
2.0000

>  <Gold.PLP.Chemscore.Internal.Correction>  (516) 
0.0053

>  <Gold.PLP.Chemscore.Metal>  (516) 
0.0000

>  <Gold.PLP.Fitness>  (516) 
36.8047

>  <Gold.PLP.PLP>  (516) 
-32.7996

>  <Gold.PLP.ligand.clash>  (516) 
0.0000

>  <Gold.PLP.ligand.torsion>  (516) 
1.0001

>  <Gold.PLP.part.buried>  (516) 
-6.5206

>  <Gold.PLP.part.hbond>  (516) 
-2.9156

>  <Gold.PLP.part.metal>  (516) 
0.0000

>  <Gold.PLP.part.nonpolar>  (516) 
-23.4080

>  <Gold.PLP.part.repulsive>  (516) 
0.3100

>  <Gold.Protein.RotatedAtoms>  (516) 


>  <Gold.Protein.RotatedTorsions>  (516) 


>  <Gold.Protein.RotatedWaterAtoms>  (516) 


>  <Gold.Version>  (516) 
5.3.0

>  <PLP.Chemscore.CHOScore>  (516) 


>  <PLP.Chemscore.Hbond>  (516) 


>  <PLP.Chemscore.Internal.Correction>  (516) 


>  <PLP.Chemscore.Metal>  (516) 


>  <PLP.Fitness>  (516) 


>  <PLP.PLP>  (516) 


>  <PLP.ligand.clash>  (516) 


>  <PLP.ligand.torsion>  (516) 


>  <PLP.part.buried>  (516) 


>  <PLP.part.hbond>  (516) 


>  <PLP.part.metal>  (516) 


>  <PLP.part.nonpolar>  (516) 


>  <PLP.part.repulsive>  (516) 


>  <RMSD>  (516) 
0.499949349045

>  <Torsion>  (516) 
159.973716791

>  <TorsionO>  (516) 
19.1052109979

>  <TorsionR>  (516) 
179.078927789

>  <Version>  (516) 


>  <product>  (516) 
2|Compound_1|Compounds_3D_F|sdf|1|dock3|1

>  <rmsd>  (516) 
-1

$$$$
1884|M3006_1781|Aromatic_primary_amines_F|sdf|361|dock3|1
     RDKit          3D

 31 34  0  0  0  0  0  0  0  0999 V2000
  -14.4210  -19.8971    8.7934 C   0  0  0  0  0  0  0  0  0  0  0  0
  -13.9762  -19.4927   10.1894 C   0  0  0  0  0  0  0  0  0  0  0  0
  -14.1356  -20.6409   11.1817 C   0  0  0  0  0  0  0  0  0  0  0  0
  -13.5197  -20.3070   12.5189 C   0  0  0  0  0  0  0  0  0  0  0  0
  -12.9307  -19.2724   12.7954 O   0  0  0  0  0  0  0  0  0  0  0  0
  -13.7110  -21.3451   13.3845 O   0  0  0  0  0  0  0  0  0  0  0  0
  -12.9425  -21.2698   14.5900 C   0  0  0  0  0  0  0  0  0  0  0  0
  -12.8849  -22.6189   15.2889 C   0  0  0  0  0  0  0  0  0  0  0  0
  -11.6552  -22.4172   16.1494 C   0  0  0  0  0  0  0  0  0  0  0  0
  -11.2420  -23.7410   16.7624 C   0  0  0  0  0  0  0  0  0  0  0  0
  -12.3024  -24.2223   17.5862 O   0  0  0  0  0  0  0  0  0  0  0  0
  -13.7888  -24.3384   16.9603 P   0  0  0  0  0  0  0  0  0  0  0  0
  -14.8775  -24.6795   17.9243 O   0  0  0  0  0  0  0  0  0  0  0  0
  -13.9839  -22.9641   16.1174 O   0  0  0  0  0  0  0  0  0  0  0  0
  -13.5991  -25.4435   15.8075 O   0  0  0  0  0  0  0  0  0  0  0  0
  -10.6922  -21.8161   15.2889 O   0  0  0  0  0  0  0  0  0  0  0  0
  -11.4338  -20.9664   14.3653 C   0  0  0  0  0  0  0  0  0  0  0  0
  -10.9052  -21.2017   13.0342 N   0  0  0  0  0  0  0  0  0  0  0  0
  -10.7814  -22.4114   12.4013 C   0  0  0  0  0  0  0  0  0  0  0  0
  -10.2640  -22.2918   11.1953 N   0  0  0  0  0  0  0  0  0  0  0  0
  -10.0274  -20.9476   11.0424 C   0  0  0  0  0  0  0  0  0  0  0  0
  -10.4203  -20.2487   12.1733 C   0  0  0  0  0  0  0  0  0  0  0  0
  -10.3338  -18.9216   12.3641 N   0  0  0  0  0  0  0  0  0  0  0  0
   -9.8057  -18.2730   11.3024 C   0  0  0  0  0  0  0  0  0  0  0  0
   -9.3808  -18.8370   10.1545 N   0  0  0  0  0  0  0  0  0  0  0  0
   -9.4895  -20.1691   10.0244 C   0  0  0  0  0  0  0  0  0  0  0  0
   -9.0330  -20.6622    8.8349 O   0  0  0  0  0  0  0  0  0  0  0  0
   -9.7222  -16.8901   11.4793 N   0  0  0  0  0  0  0  0  0  0  0  0
   -8.5796  -16.1798   11.7761 C   0  0  0  0  0  0  0  0  0  0  0  0
   -7.4445  -16.6221   11.9131 O   0  0  0  0  0  0  0  0  0  0  0  0
   -8.8524  -14.7024   11.8973 C   0  0  0  0  0  0  0  0  0  0  0  0
  1  2  1  0
  2  3  1  0
  3  4  1  0
  4  5  2  0
  4  6  1  0
  6  7  1  0
  7  8  1  0
  7 17  1  0
  8  9  1  0
  8 14  1  0
  9 10  1  0
  9 16  1  0
 10 11  1  0
 11 12  1  0
 12 13  2  0
 12 14  1  0
 12 15  1  0
 16 17  1  0
 17 18  1  0
 18 19  1  0
 18 22  1  0
 19 20  2  0
 20 21  1  0
 21 22  2  0
 21 26  1  0
 22 23  1  0
 23 24  2  0
 24 25  1  0
 24 28  1  0
 25 26  2  0
 26 27  1  0
 28 29  1  0
 29 30  2  0
 29 31  1  0
M  END
>  <Gold.Gold.Protein.RotatedWaterAtoms>  (517) 


>  <Gold.Id.Protein>  (517) 


>  <Gold.PLP.Chemscore.CHOScore>  (517) 
0.0000

>  <Gold.PLP.Chemscore.Hbond>  (517) 
1.2080

>  <Gold.PLP.Chemscore.Internal.Correction>  (517) 
0.1232

>  <Gold.PLP.Chemscore.Metal>  (517) 
0.0000

>  <Gold.PLP.Fitness>  (517) 
47.7145

>  <Gold.PLP.PLP>  (517) 
-46.0218

>  <Gold.PLP.ligand.clash>  (517) 
0.0000

>  <Gold.PLP.ligand.torsion>  (517) 
1.0272

>  <Gold.PLP.part.buried>  (517) 
-2.2958

>  <Gold.PLP.part.hbond>  (517) 
-4.0214

>  <Gold.PLP.part.metal>  (517) 
0.0000

>  <Gold.PLP.part.nonpolar>  (517) 
-41.4699

>  <Gold.PLP.part.repulsive>  (517) 
0.9524

>  <Gold.Protein.RotatedAtoms>  (517) 


>  <Gold.Protein.RotatedTorsions>  (517) 


>  <Gold.Protein.RotatedWaterAtoms>  (517) 


>  <Gold.Version>  (517) 
5.3.0

>  <PLP.Chemscore.CHOScore>  (517) 


>  <PLP.Chemscore.Hbond>  (517) 


>  <PLP.Chemscore.Internal.Correction>  (517) 


>  <PLP.Chemscore.Metal>  (517) 


>  <PLP.Fitness>  (517) 


>  <PLP.PLP>  (517) 


>  <PLP.ligand.clash>  (517) 


>  <PLP.ligand.torsion>  (517) 


>  <PLP.part.buried>  (517) 


>  <PLP.part.hbond>  (517) 


>  <PLP.part.metal>  (517) 


>  <PLP.part.nonpolar>  (517) 


>  <PLP.part.repulsive>  (517) 


>  <RMSD>  (517) 
0.291955871297

>  <Torsion>  (517) 
171.923704933

>  <TorsionO>  (517) 
6.03609353985

>  <TorsionR>  (517) 
177.959798473

>  <Version>  (517) 


>  <product>  (517) 
2|Compound_1|Compounds_3D_F|sdf|1|dock3|1

>  <rmsd>  (517) 
-1

$$$$
193|32168_281|Aromatic_primary_amines_F|sdf|39|dock6|1
     RDKit          3D

 23 25  0  0  0  0  0  0  0  0999 V2000
   -7.8439  -12.1461   11.8919 C   0  0  0  0  0  0  0  0  0  0  0  0
   -8.5691  -13.4472   11.6781 C   0  0  0  0  0  0  0  0  0  0  0  0
   -9.7886  -13.4981   11.5208 O   0  0  0  0  0  0  0  0  0  0  0  0
   -7.7264  -14.5390   11.7020 N   0  0  0  0  0  0  0  0  0  0  0  0
   -8.1889  -15.8197   11.5323 C   0  0  0  0  0  0  0  0  0  0  0  0
   -9.4747  -16.2039   11.8163 N   0  0  0  0  0  0  0  0  0  0  0  0
   -9.5964  -17.5375   11.5379 C   0  0  0  0  0  0  0  0  0  0  0  0
  -10.6643  -18.4283   11.6415 C   0  0  0  0  0  0  0  0  0  0  0  0
  -10.4051  -19.7586   11.2778 C   0  0  0  0  0  0  0  0  0  0  0  0
   -9.1530  -20.1507   10.7795 C   0  0  0  0  0  0  0  0  0  0  0  0
   -8.1017  -19.2294   10.6839 C   0  0  0  0  0  0  0  0  0  0  0  0
   -8.3349  -17.9032   11.0783 C   0  0  0  0  0  0  0  0  0  0  0  0
   -7.4773  -16.8281   11.0838 N   0  0  0  0  0  0  0  0  0  0  0  0
   -8.8530  -21.7658   10.2429 Cl  0  0  0  0  0  0  0  0  0  0  0  0
  -11.4669  -20.6323   11.3734 O   0  0  0  0  0  0  0  0  0  0  0  0
  -12.5262  -20.4408   10.5053 C   0  0  0  0  0  0  0  0  0  0  0  0
  -13.3188  -19.2846   10.5304 C   0  0  0  0  0  0  0  0  0  0  0  0
  -14.3665  -19.1344    9.6224 C   0  0  0  0  0  0  0  0  0  0  0  0
  -14.6219  -20.1279    8.6796 C   0  0  0  0  0  0  0  0  0  0  0  0
  -13.8238  -21.2756    8.6345 C   0  0  0  0  0  0  0  0  0  0  0  0
  -12.7674  -21.4342    9.5416 C   0  0  0  0  0  0  0  0  0  0  0  0
  -11.7588  -22.8458    9.4996 Cl  0  0  0  0  0  0  0  0  0  0  0  0
  -14.1988  -22.4584    7.4296 Cl  0  0  0  0  0  0  0  0  0  0  0  0
  1  2  1  0
  2  3  2  0
  2  4  1  0
  4  5  1  0
  5  6  1  0
  5 13  2  0
  6  7  1  0
  7  8  2  0
  7 12  1  0
  8  9  1  0
  9 10  2  0
  9 15  1  0
 10 11  1  0
 10 14  1  0
 11 12  2  0
 12 13  1  0
 15 16  1  0
 16 17  2  0
 16 21  1  0
 17 18  1  0
 18 19  2  0
 19 20  1  0
 20 21  2  0
 20 23  1  0
 21 22  1  0
M  END
>  <Gold.Gold.Protein.RotatedWaterAtoms>  (518) 


>  <Gold.Id.Protein>  (518) 


>  <Gold.PLP.Chemscore.CHOScore>  (518) 
0.0000

>  <Gold.PLP.Chemscore.Hbond>  (518) 
1.0000

>  <Gold.PLP.Chemscore.Internal.Correction>  (518) 
0.0086

>  <Gold.PLP.Chemscore.Metal>  (518) 
0.0000

>  <Gold.PLP.Fitness>  (518) 
50.7139

>  <Gold.PLP.PLP>  (518) 
-48.1706

>  <Gold.PLP.ligand.clash>  (518) 
0.0000

>  <Gold.PLP.ligand.torsion>  (518) 
0.2327

>  <Gold.PLP.part.buried>  (518) 
-6.5205

>  <Gold.PLP.part.hbond>  (518) 
-2.0000

>  <Gold.PLP.part.metal>  (518) 
0.0000

>  <Gold.PLP.part.nonpolar>  (518) 
-39.3857

>  <Gold.PLP.part.repulsive>  (518) 
0.3298

>  <Gold.Protein.RotatedAtoms>  (518) 


>  <Gold.Protein.RotatedTorsions>  (518) 


>  <Gold.Protein.RotatedWaterAtoms>  (518) 


>  <Gold.Version>  (518) 
5.3.0

>  <PLP.Chemscore.CHOScore>  (518) 


>  <PLP.Chemscore.Hbond>  (518) 


>  <PLP.Chemscore.Internal.Correction>  (518) 


>  <PLP.Chemscore.Metal>  (518) 


>  <PLP.Fitness>  (518) 


>  <PLP.PLP>  (518) 


>  <PLP.ligand.clash>  (518) 


>  <PLP.ligand.torsion>  (518) 


>  <PLP.part.buried>  (518) 


>  <PLP.part.hbond>  (518) 


>  <PLP.part.metal>  (518) 


>  <PLP.part.nonpolar>  (518) 


>  <PLP.part.repulsive>  (518) 


>  <RMSD>  (518) 
0.439733510035

>  <Torsion>  (518) 
177.672185574

>  <TorsionO>  (518) 
4.31728583372

>  <TorsionR>  (518) 
173.35489974

>  <Version>  (518) 


>  <product>  (518) 
2|Compound_1|Compounds_3D_F|sdf|1|dock3|1

>  <rmsd>  (518) 
-1

$$$$
37|Compound_20|Compounds_3D_F|sdf|7|dock3|1
     RDKit          3D

  8  7  0  0  0  0  0  0  0  0999 V2000
   -2.5956  -17.5539    9.7652 B   0  0  0  0  0  0  0  0  0  0  0  0
   -3.6419  -17.4654   10.9319 C   0  0  0  0  0  0  0  0  0  0  0  0
   -4.0072  -18.4738   11.4974 O   0  0  0  0  0  0  0  0  0  0  0  0
   -4.1346  -16.2674   11.3053 N   0  0  0  0  0  0  0  0  0  0  0  0
   -5.1115  -16.1848   12.3944 C   0  0  0  0  0  0  0  0  0  0  0  0
   -5.8509  -14.8475   12.3158 C   0  0  0  0  0  0  0  0  0  0  0  0
   -4.8753  -13.7534   12.2221 N   0  0  0  0  0  0  0  0  0  0  0  0
   -5.5084  -12.4579   12.5036 C   0  0  0  0  0  0  0  0  0  0  0  0
  1  2  1  0
  2  3  2  0
  2  4  1  0
  4  5  1  0
  5  6  1  0
  6  7  1  0
  7  8  1  0
M  END
>  <Gold.Gold.Protein.RotatedWaterAtoms>  (519) 


>  <Gold.Id.Protein>  (519) 


>  <Gold.PLP.Chemscore.CHOScore>  (519) 
0.0000

>  <Gold.PLP.Chemscore.Hbond>  (519) 
2.0000

>  <Gold.PLP.Chemscore.Internal.Correction>  (519) 
0.0006

>  <Gold.PLP.Chemscore.Metal>  (519) 
0.0000

>  <Gold.PLP.Fitness>  (519) 
28.9338

>  <Gold.PLP.PLP>  (519) 
-23.3477

>  <Gold.PLP.ligand.clash>  (519) 
0.0000

>  <Gold.PLP.ligand.torsion>  (519) 
0.2073

>  <Gold.PLP.part.buried>  (519) 
-4.8084

>  <Gold.PLP.part.hbond>  (519) 
-3.0000

>  <Gold.PLP.part.metal>  (519) 
0.0000

>  <Gold.PLP.part.nonpolar>  (519) 
-15.8251

>  <Gold.PLP.part.repulsive>  (519) 
0.0859

>  <Gold.Protein.RotatedAtoms>  (519) 


>  <Gold.Protein.RotatedTorsions>  (519) 


>  <Gold.Protein.RotatedWaterAtoms>  (519) 


>  <Gold.Version>  (519) 
5.3.0

>  <PLP.Chemscore.CHOScore>  (519) 


>  <PLP.Chemscore.Hbond>  (519) 


>  <PLP.Chemscore.Internal.Correction>  (519) 


>  <PLP.Chemscore.Metal>  (519) 


>  <PLP.Fitness>  (519) 


>  <PLP.PLP>  (519) 


>  <PLP.ligand.clash>  (519) 


>  <PLP.ligand.torsion>  (519) 


>  <PLP.part.buried>  (519) 


>  <PLP.part.hbond>  (519) 


>  <PLP.part.metal>  (519) 


>  <PLP.part.nonpolar>  (519) 


>  <PLP.part.repulsive>  (519) 


>  <Version>  (519) 


$$$$
94|664022_40|Aromatic_carboxylic_acids_F|sdf|24|dock1|1
     RDKit          3D

 12 12  0  0  0  0  0  0  0  0999 V2000
   -8.2596  -17.1212   11.4595 C   0  0  0  0  0  0  0  0  0  0  0  0
   -7.6366  -15.8367   11.6688 N   0  0  0  0  0  0  0  0  0  0  0  0
   -8.3409  -14.6553   11.5719 C   0  0  0  0  0  0  0  0  0  0  0  0
   -9.5296  -14.5547   11.2978 O   0  0  0  0  0  0  0  0  0  0  0  0
   -7.5420  -13.4431   11.8503 C   0  0  0  0  0  0  0  0  0  0  0  0
   -8.1627  -12.1983   11.6738 C   0  0  0  0  0  0  0  0  0  0  0  0
   -7.4390  -11.0301   11.9055 C   0  0  0  0  0  0  0  0  0  0  0  0
   -6.1069  -11.0910   12.3103 C   0  0  0  0  0  0  0  0  0  0  0  0
   -5.4897  -12.3324   12.4853 C   0  0  0  0  0  0  0  0  0  0  0  0
   -6.2035  -13.5136   12.2549 C   0  0  0  0  0  0  0  0  0  0  0  0
   -5.3062  -15.1564   12.5638 Br  0  0  0  0  0  0  0  0  0  0  0  0
   -8.1960   -9.5005   11.6887 Cl  0  0  0  0  0  0  0  0  0  0  0  0
  1  2  1  0
  2  3  1  0
  3  4  2  0
  3  5  1  0
  5  6  2  0
  5 10  1  0
  6  7  1  0
  7  8  2  0
  7 12  1  0
  8  9  1  0
  9 10  2  0
 10 11  1  0
M  END
>  <Gold.Gold.Protein.RotatedWaterAtoms>  (520) 


>  <Gold.Id.Protein>  (520) 


>  <Gold.PLP.Chemscore.CHOScore>  (520) 
0.0000

>  <Gold.PLP.Chemscore.Hbond>  (520) 
0.4160

>  <Gold.PLP.Chemscore.Internal.Correction>  (520) 
0.0004

>  <Gold.PLP.Chemscore.Metal>  (520) 
0.0000

>  <Gold.PLP.Fitness>  (520) 
48.9046

>  <Gold.PLP.PLP>  (520) 
-47.6744

>  <Gold.PLP.ligand.clash>  (520) 
0.0000

>  <Gold.PLP.ligand.torsion>  (520) 
0.0091

>  <Gold.PLP.part.buried>  (520) 
-7.3578

>  <Gold.PLP.part.hbond>  (520) 
-0.5127

>  <Gold.PLP.part.metal>  (520) 
0.0000

>  <Gold.PLP.part.nonpolar>  (520) 
-40.3098

>  <Gold.PLP.part.repulsive>  (520) 
0.1684

>  <Gold.Protein.RotatedAtoms>  (520) 


>  <Gold.Protein.RotatedTorsions>  (520) 


>  <Gold.Protein.RotatedWaterAtoms>  (520) 


>  <Gold.Version>  (520) 
5.3.0

>  <PLP.Chemscore.CHOScore>  (520) 


>  <PLP.Chemscore.Hbond>  (520) 


>  <PLP.Chemscore.Internal.Correction>  (520) 


>  <PLP.Chemscore.Metal>  (520) 


>  <PLP.Fitness>  (520) 


>  <PLP.PLP>  (520) 


>  <PLP.ligand.clash>  (520) 


>  <PLP.ligand.torsion>  (520) 


>  <PLP.part.buried>  (520) 


>  <PLP.part.hbond>  (520) 


>  <PLP.part.metal>  (520) 


>  <PLP.part.nonpolar>  (520) 


>  <PLP.part.repulsive>  (520) 


>  <RMSD>  (520) 
0.30972197429

>  <Torsion>  (520) 
172.929186758

>  <TorsionO>  (520) 
24.4968065243

>  <TorsionR>  (520) 
162.574006718

>  <Version>  (520) 


>  <product>  (520) 
37|Compound_20|Compounds_3D_F|sdf|7|dock3|1

>  <rmsd>  (520) 
-1

$$$$
110|565385_49|Aromatic_carboxylic_acids_F|sdf|29|dock1|1
     RDKit          3D

 13 13  0  0  0  0  0  0  0  0999 V2000
  -10.1118  -17.9021   11.6320 C   0  0  0  0  0  0  0  0  0  0  0  0
   -9.7537  -16.5043   11.6546 N   0  0  0  0  0  0  0  0  0  0  0  0
   -8.4330  -16.1187   11.7930 C   0  0  0  0  0  0  0  0  0  0  0  0
   -7.5159  -16.9298   11.9008 O   0  0  0  0  0  0  0  0  0  0  0  0
   -8.1234  -14.6552   11.8105 C   0  0  0  0  0  0  0  0  0  0  0  0
   -9.0636  -13.6551   11.5375 C   0  0  0  0  0  0  0  0  0  0  0  0
   -8.6966  -12.3009   11.5726 C   0  0  0  0  0  0  0  0  0  0  0  0
   -7.3879  -11.9195   11.8809 C   0  0  0  0  0  0  0  0  0  0  0  0
   -6.4486  -12.9235   12.1551 C   0  0  0  0  0  0  0  0  0  0  0  0
   -6.8098  -14.2750   12.1207 C   0  0  0  0  0  0  0  0  0  0  0  0
   -4.6444  -12.5025   12.5849 Br  0  0  0  0  0  0  0  0  0  0  0  0
   -6.9476  -10.6242   11.9372 O   0  0  0  0  0  0  0  0  0  0  0  0
   -7.9020   -9.5910   11.7256 C   0  0  0  0  0  0  0  0  0  0  0  0
  1  2  1  0
  2  3  1  0
  3  4  2  0
  3  5  1  0
  5  6  2  0
  5 10  1  0
  6  7  1  0
  7  8  2  0
  8  9  1  0
  8 12  1  0
  9 10  2  0
  9 11  1  0
 12 13  1  0
M  END
>  <Gold.Gold.Protein.RotatedWaterAtoms>  (521) 


>  <Gold.Id.Protein>  (521) 


>  <Gold.PLP.Chemscore.CHOScore>  (521) 
0.0000

>  <Gold.PLP.Chemscore.Hbond>  (521) 
1.0000

>  <Gold.PLP.Chemscore.Internal.Correction>  (521) 
0.0000

>  <Gold.PLP.Chemscore.Metal>  (521) 
0.0000

>  <Gold.PLP.Fitness>  (521) 
43.9775

>  <Gold.PLP.PLP>  (521) 
-41.0517

>  <Gold.PLP.ligand.clash>  (521) 
0.0000

>  <Gold.PLP.ligand.torsion>  (521) 
0.0371

>  <Gold.PLP.part.buried>  (521) 
-3.7367

>  <Gold.PLP.part.hbond>  (521) 
-1.0000

>  <Gold.PLP.part.metal>  (521) 
0.0000

>  <Gold.PLP.part.nonpolar>  (521) 
-36.7483

>  <Gold.PLP.part.repulsive>  (521) 
0.4054

>  <Gold.Protein.RotatedAtoms>  (521) 


>  <Gold.Protein.RotatedTorsions>  (521) 


>  <Gold.Protein.RotatedWaterAtoms>  (521) 


>  <Gold.Version>  (521) 
5.3.0

>  <PLP.Chemscore.CHOScore>  (521) 


>  <PLP.Chemscore.Hbond>  (521) 


>  <PLP.Chemscore.Internal.Correction>  (521) 


>  <PLP.Chemscore.Metal>  (521) 


>  <PLP.Fitness>  (521) 


>  <PLP.PLP>  (521) 


>  <PLP.ligand.clash>  (521) 


>  <PLP.ligand.torsion>  (521) 


>  <PLP.part.buried>  (521) 


>  <PLP.part.hbond>  (521) 


>  <PLP.part.metal>  (521) 


>  <PLP.part.nonpolar>  (521) 


>  <PLP.part.repulsive>  (521) 


>  <RMSD>  (521) 
0.319376411377

>  <Torsion>  (521) 
169.460450784

>  <TorsionO>  (521) 
9.7963905484

>  <TorsionR>  (521) 
179.256841332

>  <Version>  (521) 


>  <product>  (521) 
37|Compound_20|Compounds_3D_F|sdf|7|dock3|1

>  <rmsd>  (521) 
-1

$$$$
128|137677_56|Aromatic_carboxylic_acids_F|sdf|33|dock1|1
     RDKit          3D

 11 11  0  0  0  0  0  0  0  0999 V2000
   -8.6116  -16.1544   11.8887 C   0  0  0  0  0  0  0  0  0  0  0  0
   -7.9978  -14.8484   11.9215 N   0  0  0  0  0  0  0  0  0  0  0  0
   -8.7778  -13.7008   11.8756 C   0  0  0  0  0  0  0  0  0  0  0  0
  -10.0002  -13.7896   11.8139 O   0  0  0  0  0  0  0  0  0  0  0  0
   -8.0808  -12.3609   11.9017 C   0  0  0  0  0  0  0  0  0  0  0  0
   -8.7916  -11.1851   11.5813 C   0  0  0  0  0  0  0  0  0  0  0  0
   -8.1781   -9.9267   11.5989 C   0  0  0  0  0  0  0  0  0  0  0  0
   -6.8391   -9.8089   11.9369 C   0  0  0  0  0  0  0  0  0  0  0  0
   -6.1124  -10.9502   12.2575 C   0  0  0  0  0  0  0  0  0  0  0  0
   -6.7171  -12.2196   12.2428 C   0  0  0  0  0  0  0  0  0  0  0  0
   -5.5419  -13.6455   12.7121 Br  0  0  0  0  0  0  0  0  0  0  0  0
  1  2  1  0
  2  3  1  0
  3  4  2  0
  3  5  1  0
  5  6  2  0
  5 10  1  0
  6  7  1  0
  7  8  2  0
  8  9  1  0
  9 10  2  0
 10 11  1  0
M  END
>  <Gold.Gold.Protein.RotatedWaterAtoms>  (522) 


>  <Gold.Id.Protein>  (522) 


>  <Gold.PLP.Chemscore.CHOScore>  (522) 
0.0000

>  <Gold.PLP.Chemscore.Hbond>  (522) 
1.0000

>  <Gold.PLP.Chemscore.Internal.Correction>  (522) 
0.0000

>  <Gold.PLP.Chemscore.Metal>  (522) 
0.0000

>  <Gold.PLP.Fitness>  (522) 
45.2899

>  <Gold.PLP.PLP>  (522) 
-42.4444

>  <Gold.PLP.ligand.clash>  (522) 
0.0000

>  <Gold.PLP.ligand.torsion>  (522) 
0.0772

>  <Gold.PLP.part.buried>  (522) 
-6.4690

>  <Gold.PLP.part.hbond>  (522) 
-0.6863

>  <Gold.PLP.part.metal>  (522) 
0.0000

>  <Gold.PLP.part.nonpolar>  (522) 
-34.8280

>  <Gold.PLP.part.repulsive>  (522) 
0.1963

>  <Gold.Protein.RotatedAtoms>  (522) 


>  <Gold.Protein.RotatedTorsions>  (522) 


>  <Gold.Protein.RotatedWaterAtoms>  (522) 


>  <Gold.Version>  (522) 
5.3.0

>  <PLP.Chemscore.CHOScore>  (522) 


>  <PLP.Chemscore.Hbond>  (522) 


>  <PLP.Chemscore.Internal.Correction>  (522) 


>  <PLP.Chemscore.Metal>  (522) 


>  <PLP.Fitness>  (522) 


>  <PLP.PLP>  (522) 


>  <PLP.ligand.clash>  (522) 


>  <PLP.ligand.torsion>  (522) 


>  <PLP.part.buried>  (522) 


>  <PLP.part.hbond>  (522) 


>  <PLP.part.metal>  (522) 


>  <PLP.part.nonpolar>  (522) 


>  <PLP.part.repulsive>  (522) 


>  <RMSD>  (522) 
0.428070490903

>  <Torsion>  (522) 
152.444048788

>  <TorsionO>  (522) 
39.0580871276

>  <TorsionR>  (522) 
168.497864085

>  <Version>  (522) 


>  <product>  (522) 
37|Compound_20|Compounds_3D_F|sdf|7|dock3|1

>  <rmsd>  (522) 
-1

$$$$
974|750794_1404|Aromatic_primary_amines_F|sdf|194|dock3|1
     RDKit          3D

 14 14  0  0  0  0  0  0  0  0999 V2000
  -13.6355  -18.1936    9.4145 C   0  0  0  0  0  0  0  0  0  0  0  0
  -13.2544  -19.4497   10.1732 C   0  0  0  0  0  0  0  0  0  0  0  0
  -11.8731  -19.3506   10.5383 O   0  0  0  0  0  0  0  0  0  0  0  0
  -11.6148  -18.5085   11.5823 C   0  0  0  0  0  0  0  0  0  0  0  0
  -12.3947  -18.2810   12.5004 O   0  0  0  0  0  0  0  0  0  0  0  0
  -10.3031  -17.8985   11.4902 C   0  0  0  0  0  0  0  0  0  0  0  0
   -9.1673  -18.4974   10.9931 C   0  0  0  0  0  0  0  0  0  0  0  0
   -8.1448  -17.6055   11.0758 O   0  0  0  0  0  0  0  0  0  0  0  0
   -8.7110  -16.4917   11.6237 C   0  0  0  0  0  0  0  0  0  0  0  0
   -9.9933  -16.6110   11.8915 N   0  0  0  0  0  0  0  0  0  0  0  0
   -7.9611  -15.3718   11.8549 N   0  0  0  0  0  0  0  0  0  0  0  0
   -8.5046  -14.1249   12.0676 C   0  0  0  0  0  0  0  0  0  0  0  0
   -9.6950  -13.8313   12.1035 O   0  0  0  0  0  0  0  0  0  0  0  0
   -7.4448  -13.0785   12.3021 C   0  0  0  0  0  0  0  0  0  0  0  0
  1  2  1  0
  2  3  1  0
  3  4  1  0
  4  5  2  0
  4  6  1  0
  6  7  2  0
  6 10  1  0
  7  8  1  0
  8  9  1  0
  9 10  2  0
  9 11  1  0
 11 12  1  0
 12 13  2  0
 12 14  1  0
M  END
>  <Gold.Gold.Protein.RotatedWaterAtoms>  (523) 


>  <Gold.Id.Protein>  (523) 


>  <Gold.PLP.Chemscore.CHOScore>  (523) 
0.0000

>  <Gold.PLP.Chemscore.Hbond>  (523) 
2.0000

>  <Gold.PLP.Chemscore.Internal.Correction>  (523) 
0.0053

>  <Gold.PLP.Chemscore.Metal>  (523) 
0.0000

>  <Gold.PLP.Fitness>  (523) 
36.8047

>  <Gold.PLP.PLP>  (523) 
-32.7996

>  <Gold.PLP.ligand.clash>  (523) 
0.0000

>  <Gold.PLP.ligand.torsion>  (523) 
1.0001

>  <Gold.PLP.part.buried>  (523) 
-6.5206

>  <Gold.PLP.part.hbond>  (523) 
-2.9156

>  <Gold.PLP.part.metal>  (523) 
0.0000

>  <Gold.PLP.part.nonpolar>  (523) 
-23.4080

>  <Gold.PLP.part.repulsive>  (523) 
0.3100

>  <Gold.Protein.RotatedAtoms>  (523) 


>  <Gold.Protein.RotatedTorsions>  (523) 


>  <Gold.Protein.RotatedWaterAtoms>  (523) 


>  <Gold.Version>  (523) 
5.3.0

>  <PLP.Chemscore.CHOScore>  (523) 


>  <PLP.Chemscore.Hbond>  (523) 


>  <PLP.Chemscore.Internal.Correction>  (523) 


>  <PLP.Chemscore.Metal>  (523) 


>  <PLP.Fitness>  (523) 


>  <PLP.PLP>  (523) 


>  <PLP.ligand.clash>  (523) 


>  <PLP.ligand.torsion>  (523) 


>  <PLP.part.buried>  (523) 


>  <PLP.part.hbond>  (523) 


>  <PLP.part.metal>  (523) 


>  <PLP.part.nonpolar>  (523) 


>  <PLP.part.repulsive>  (523) 


>  <RMSD>  (523) 
0.499949349045

>  <Torsion>  (523) 
159.973716791

>  <TorsionO>  (523) 
19.1052109979

>  <TorsionR>  (523) 
179.078927789

>  <Version>  (523) 


>  <product>  (523) 
37|Compound_20|Compounds_3D_F|sdf|7|dock3|1

>  <rmsd>  (523) 
-1

$$$$
1884|M3006_1781|Aromatic_primary_amines_F|sdf|361|dock3|1
     RDKit          3D

 31 34  0  0  0  0  0  0  0  0999 V2000
  -14.4210  -19.8971    8.7934 C   0  0  0  0  0  0  0  0  0  0  0  0
  -13.9762  -19.4927   10.1894 C   0  0  0  0  0  0  0  0  0  0  0  0
  -14.1356  -20.6409   11.1817 C   0  0  0  0  0  0  0  0  0  0  0  0
  -13.5197  -20.3070   12.5189 C   0  0  0  0  0  0  0  0  0  0  0  0
  -12.9307  -19.2724   12.7954 O   0  0  0  0  0  0  0  0  0  0  0  0
  -13.7110  -21.3451   13.3845 O   0  0  0  0  0  0  0  0  0  0  0  0
  -12.9425  -21.2698   14.5900 C   0  0  0  0  0  0  0  0  0  0  0  0
  -12.8849  -22.6189   15.2889 C   0  0  0  0  0  0  0  0  0  0  0  0
  -11.6552  -22.4172   16.1494 C   0  0  0  0  0  0  0  0  0  0  0  0
  -11.2420  -23.7410   16.7624 C   0  0  0  0  0  0  0  0  0  0  0  0
  -12.3024  -24.2223   17.5862 O   0  0  0  0  0  0  0  0  0  0  0  0
  -13.7888  -24.3384   16.9603 P   0  0  0  0  0  0  0  0  0  0  0  0
  -14.8775  -24.6795   17.9243 O   0  0  0  0  0  0  0  0  0  0  0  0
  -13.9839  -22.9641   16.1174 O   0  0  0  0  0  0  0  0  0  0  0  0
  -13.5991  -25.4435   15.8075 O   0  0  0  0  0  0  0  0  0  0  0  0
  -10.6922  -21.8161   15.2889 O   0  0  0  0  0  0  0  0  0  0  0  0
  -11.4338  -20.9664   14.3653 C   0  0  0  0  0  0  0  0  0  0  0  0
  -10.9052  -21.2017   13.0342 N   0  0  0  0  0  0  0  0  0  0  0  0
  -10.7814  -22.4114   12.4013 C   0  0  0  0  0  0  0  0  0  0  0  0
  -10.2640  -22.2918   11.1953 N   0  0  0  0  0  0  0  0  0  0  0  0
  -10.0274  -20.9476   11.0424 C   0  0  0  0  0  0  0  0  0  0  0  0
  -10.4203  -20.2487   12.1733 C   0  0  0  0  0  0  0  0  0  0  0  0
  -10.3338  -18.9216   12.3641 N   0  0  0  0  0  0  0  0  0  0  0  0
   -9.8057  -18.2730   11.3024 C   0  0  0  0  0  0  0  0  0  0  0  0
   -9.3808  -18.8370   10.1545 N   0  0  0  0  0  0  0  0  0  0  0  0
   -9.4895  -20.1691   10.0244 C   0  0  0  0  0  0  0  0  0  0  0  0
   -9.0330  -20.6622    8.8349 O   0  0  0  0  0  0  0  0  0  0  0  0
   -9.7222  -16.8901   11.4793 N   0  0  0  0  0  0  0  0  0  0  0  0
   -8.5796  -16.1798   11.7761 C   0  0  0  0  0  0  0  0  0  0  0  0
   -7.4445  -16.6221   11.9131 O   0  0  0  0  0  0  0  0  0  0  0  0
   -8.8524  -14.7024   11.8973 C   0  0  0  0  0  0  0  0  0  0  0  0
  1  2  1  0
  2  3  1  0
  3  4  1  0
  4  5  2  0
  4  6  1  0
  6  7  1  0
  7  8  1  0
  7 17  1  0
  8  9  1  0
  8 14  1  0
  9 10  1  0
  9 16  1  0
 10 11  1  0
 11 12  1  0
 12 13  2  0
 12 14  1  0
 12 15  1  0
 16 17  1  0
 17 18  1  0
 18 19  1  0
 18 22  1  0
 19 20  2  0
 20 21  1  0
 21 22  2  0
 21 26  1  0
 22 23  1  0
 23 24  2  0
 24 25  1  0
 24 28  1  0
 25 26  2  0
 26 27  1  0
 28 29  1  0
 29 30  2  0
 29 31  1  0
M  END
>  <Gold.Gold.Protein.RotatedWaterAtoms>  (524) 


>  <Gold.Id.Protein>  (524) 


>  <Gold.PLP.Chemscore.CHOScore>  (524) 
0.0000

>  <Gold.PLP.Chemscore.Hbond>  (524) 
1.2080

>  <Gold.PLP.Chemscore.Internal.Correction>  (524) 
0.1232

>  <Gold.PLP.Chemscore.Metal>  (524) 
0.0000

>  <Gold.PLP.Fitness>  (524) 
47.7145

>  <Gold.PLP.PLP>  (524) 
-46.0218

>  <Gold.PLP.ligand.clash>  (524) 
0.0000

>  <Gold.PLP.ligand.torsion>  (524) 
1.0272

>  <Gold.PLP.part.buried>  (524) 
-2.2958

>  <Gold.PLP.part.hbond>  (524) 
-4.0214

>  <Gold.PLP.part.metal>  (524) 
0.0000

>  <Gold.PLP.part.nonpolar>  (524) 
-41.4699

>  <Gold.PLP.part.repulsive>  (524) 
0.9524

>  <Gold.Protein.RotatedAtoms>  (524) 


>  <Gold.Protein.RotatedTorsions>  (524) 


>  <Gold.Protein.RotatedWaterAtoms>  (524) 


>  <Gold.Version>  (524) 
5.3.0

>  <PLP.Chemscore.CHOScore>  (524) 


>  <PLP.Chemscore.Hbond>  (524) 


>  <PLP.Chemscore.Internal.Correction>  (524) 


>  <PLP.Chemscore.Metal>  (524) 


>  <PLP.Fitness>  (524) 


>  <PLP.PLP>  (524) 


>  <PLP.ligand.clash>  (524) 


>  <PLP.ligand.torsion>  (524) 


>  <PLP.part.buried>  (524) 


>  <PLP.part.hbond>  (524) 


>  <PLP.part.metal>  (524) 


>  <PLP.part.nonpolar>  (524) 


>  <PLP.part.repulsive>  (524) 


>  <RMSD>  (524) 
0.291955871297

>  <Torsion>  (524) 
171.923704933

>  <TorsionO>  (524) 
6.03609353985

>  <TorsionR>  (524) 
177.959798473

>  <Version>  (524) 


>  <product>  (524) 
37|Compound_20|Compounds_3D_F|sdf|7|dock3|1

>  <rmsd>  (524) 
-1

$$$$
193|32168_281|Aromatic_primary_amines_F|sdf|39|dock6|1
     RDKit          3D

 23 25  0  0  0  0  0  0  0  0999 V2000
   -7.8439  -12.1461   11.8919 C   0  0  0  0  0  0  0  0  0  0  0  0
   -8.5691  -13.4472   11.6781 C   0  0  0  0  0  0  0  0  0  0  0  0
   -9.7886  -13.4981   11.5208 O   0  0  0  0  0  0  0  0  0  0  0  0
   -7.7264  -14.5390   11.7020 N   0  0  0  0  0  0  0  0  0  0  0  0
   -8.1889  -15.8197   11.5323 C   0  0  0  0  0  0  0  0  0  0  0  0
   -9.4747  -16.2039   11.8163 N   0  0  0  0  0  0  0  0  0  0  0  0
   -9.5964  -17.5375   11.5379 C   0  0  0  0  0  0  0  0  0  0  0  0
  -10.6643  -18.4283   11.6415 C   0  0  0  0  0  0  0  0  0  0  0  0
  -10.4051  -19.7586   11.2778 C   0  0  0  0  0  0  0  0  0  0  0  0
   -9.1530  -20.1507   10.7795 C   0  0  0  0  0  0  0  0  0  0  0  0
   -8.1017  -19.2294   10.6839 C   0  0  0  0  0  0  0  0  0  0  0  0
   -8.3349  -17.9032   11.0783 C   0  0  0  0  0  0  0  0  0  0  0  0
   -7.4773  -16.8281   11.0838 N   0  0  0  0  0  0  0  0  0  0  0  0
   -8.8530  -21.7658   10.2429 Cl  0  0  0  0  0  0  0  0  0  0  0  0
  -11.4669  -20.6323   11.3734 O   0  0  0  0  0  0  0  0  0  0  0  0
  -12.5262  -20.4408   10.5053 C   0  0  0  0  0  0  0  0  0  0  0  0
  -13.3188  -19.2846   10.5304 C   0  0  0  0  0  0  0  0  0  0  0  0
  -14.3665  -19.1344    9.6224 C   0  0  0  0  0  0  0  0  0  0  0  0
  -14.6219  -20.1279    8.6796 C   0  0  0  0  0  0  0  0  0  0  0  0
  -13.8238  -21.2756    8.6345 C   0  0  0  0  0  0  0  0  0  0  0  0
  -12.7674  -21.4342    9.5416 C   0  0  0  0  0  0  0  0  0  0  0  0
  -11.7588  -22.8458    9.4996 Cl  0  0  0  0  0  0  0  0  0  0  0  0
  -14.1988  -22.4584    7.4296 Cl  0  0  0  0  0  0  0  0  0  0  0  0
  1  2  1  0
  2  3  2  0
  2  4  1  0
  4  5  1  0
  5  6  1  0
  5 13  2  0
  6  7  1  0
  7  8  2  0
  7 12  1  0
  8  9  1  0
  9 10  2  0
  9 15  1  0
 10 11  1  0
 10 14  1  0
 11 12  2  0
 12 13  1  0
 15 16  1  0
 16 17  2  0
 16 21  1  0
 17 18  1  0
 18 19  2  0
 19 20  1  0
 20 21  2  0
 20 23  1  0
 21 22  1  0
M  END
>  <Gold.Gold.Protein.RotatedWaterAtoms>  (525) 


>  <Gold.Id.Protein>  (525) 


>  <Gold.PLP.Chemscore.CHOScore>  (525) 
0.0000

>  <Gold.PLP.Chemscore.Hbond>  (525) 
1.0000

>  <Gold.PLP.Chemscore.Internal.Correction>  (525) 
0.0086

>  <Gold.PLP.Chemscore.Metal>  (525) 
0.0000

>  <Gold.PLP.Fitness>  (525) 
50.7139

>  <Gold.PLP.PLP>  (525) 
-48.1706

>  <Gold.PLP.ligand.clash>  (525) 
0.0000

>  <Gold.PLP.ligand.torsion>  (525) 
0.2327

>  <Gold.PLP.part.buried>  (525) 
-6.5205

>  <Gold.PLP.part.hbond>  (525) 
-2.0000

>  <Gold.PLP.part.metal>  (525) 
0.0000

>  <Gold.PLP.part.nonpolar>  (525) 
-39.3857

>  <Gold.PLP.part.repulsive>  (525) 
0.3298

>  <Gold.Protein.RotatedAtoms>  (525) 


>  <Gold.Protein.RotatedTorsions>  (525) 


>  <Gold.Protein.RotatedWaterAtoms>  (525) 


>  <Gold.Version>  (525) 
5.3.0

>  <PLP.Chemscore.CHOScore>  (525) 


>  <PLP.Chemscore.Hbond>  (525) 


>  <PLP.Chemscore.Internal.Correction>  (525) 


>  <PLP.Chemscore.Metal>  (525) 


>  <PLP.Fitness>  (525) 


>  <PLP.PLP>  (525) 


>  <PLP.ligand.clash>  (525) 


>  <PLP.ligand.torsion>  (525) 


>  <PLP.part.buried>  (525) 


>  <PLP.part.hbond>  (525) 


>  <PLP.part.metal>  (525) 


>  <PLP.part.nonpolar>  (525) 


>  <PLP.part.repulsive>  (525) 


>  <RMSD>  (525) 
0.439733510035

>  <Torsion>  (525) 
177.672185574

>  <TorsionO>  (525) 
4.31728583372

>  <TorsionR>  (525) 
173.35489974

>  <Version>  (525) 


>  <product>  (525) 
37|Compound_20|Compounds_3D_F|sdf|7|dock3|1

>  <rmsd>  (525) 
-1

$$$$
47|Compound_23|Compounds_3D_F|sdf|9|dock2|1
     RDKit          3D

 11 10  0  0  0  0  0  0  0  0999 V2000
   -5.8004  -15.2109    8.3716 O   0  0  0  0  0  0  0  0  0  0  0  0
   -6.0944  -15.9215    9.4708 C   0  0  0  0  0  0  0  0  0  0  0  0
   -5.8625  -17.1074    9.5048 O   0  0  0  0  0  0  0  0  0  0  0  0
   -6.7151  -15.2416   10.6642 C   0  0  0  0  0  0  0  0  0  0  0  0
   -5.8349  -14.1647   11.1244 N   0  0  0  0  0  0  0  0  0  0  0  0
   -6.2222  -13.3642   12.1375 C   0  0  0  0  0  0  0  0  0  0  0  0
   -7.2985  -13.5363   12.6685 O   0  0  0  0  0  0  0  0  0  0  0  0
   -5.2787  -12.2105   12.6305 B   0  0  0  0  0  0  0  0  0  0  0  0
   -6.9053  -16.2602   11.7896 C   0  0  0  0  0  0  0  0  0  0  0  0
   -8.0734  -14.6573   10.2698 C   0  0  0  0  0  0  0  0  0  0  0  0
   -8.9990  -15.7206   10.0380 O   0  0  0  0  0  0  0  0  0  0  0  0
  1  2  1  0
  2  3  2  0
  2  4  1  0
  4  5  1  0
  4  9  1  0
  4 10  1  0
  5  6  1  0
  6  7  2  0
  6  8  1  0
 10 11  1  0
M  END
>  <Gold.Gold.Protein.RotatedWaterAtoms>  (526) 


>  <Gold.Id.Protein>  (526) 


>  <Gold.PLP.Chemscore.CHOScore>  (526) 
0.0000

>  <Gold.PLP.Chemscore.Hbond>  (526) 
2.0000

>  <Gold.PLP.Chemscore.Internal.Correction>  (526) 
0.0006

>  <Gold.PLP.Chemscore.Metal>  (526) 
0.0000

>  <Gold.PLP.Fitness>  (526) 
28.5981

>  <Gold.PLP.PLP>  (526) 
-22.8067

>  <Gold.PLP.ligand.clash>  (526) 
0.0000

>  <Gold.PLP.ligand.torsion>  (526) 
0.1047

>  <Gold.PLP.part.buried>  (526) 
-4.9779

>  <Gold.PLP.part.hbond>  (526) 
-3.4654

>  <Gold.PLP.part.metal>  (526) 
0.0000

>  <Gold.PLP.part.nonpolar>  (526) 
-15.8765

>  <Gold.PLP.part.repulsive>  (526) 
1.5171

>  <Gold.Protein.RotatedAtoms>  (526) 


>  <Gold.Protein.RotatedTorsions>  (526) 


>  <Gold.Protein.RotatedWaterAtoms>  (526) 


>  <Gold.Version>  (526) 
5.3.0

>  <PLP.Chemscore.CHOScore>  (526) 


>  <PLP.Chemscore.Hbond>  (526) 


>  <PLP.Chemscore.Internal.Correction>  (526) 


>  <PLP.Chemscore.Metal>  (526) 


>  <PLP.Fitness>  (526) 


>  <PLP.PLP>  (526) 


>  <PLP.ligand.clash>  (526) 


>  <PLP.ligand.torsion>  (526) 


>  <PLP.part.buried>  (526) 


>  <PLP.part.hbond>  (526) 


>  <PLP.part.metal>  (526) 


>  <PLP.part.nonpolar>  (526) 


>  <PLP.part.repulsive>  (526) 


>  <Version>  (526) 


$$$$
94|664022_40|Aromatic_carboxylic_acids_F|sdf|24|dock1|1
     RDKit          3D

 12 12  0  0  0  0  0  0  0  0999 V2000
   -8.2596  -17.1212   11.4595 C   0  0  0  0  0  0  0  0  0  0  0  0
   -7.6366  -15.8367   11.6688 N   0  0  0  0  0  0  0  0  0  0  0  0
   -8.3409  -14.6553   11.5719 C   0  0  0  0  0  0  0  0  0  0  0  0
   -9.5296  -14.5547   11.2978 O   0  0  0  0  0  0  0  0  0  0  0  0
   -7.5420  -13.4431   11.8503 C   0  0  0  0  0  0  0  0  0  0  0  0
   -8.1627  -12.1983   11.6738 C   0  0  0  0  0  0  0  0  0  0  0  0
   -7.4390  -11.0301   11.9055 C   0  0  0  0  0  0  0  0  0  0  0  0
   -6.1069  -11.0910   12.3103 C   0  0  0  0  0  0  0  0  0  0  0  0
   -5.4897  -12.3324   12.4853 C   0  0  0  0  0  0  0  0  0  0  0  0
   -6.2035  -13.5136   12.2549 C   0  0  0  0  0  0  0  0  0  0  0  0
   -5.3062  -15.1564   12.5638 Br  0  0  0  0  0  0  0  0  0  0  0  0
   -8.1960   -9.5005   11.6887 Cl  0  0  0  0  0  0  0  0  0  0  0  0
  1  2  1  0
  2  3  1  0
  3  4  2  0
  3  5  1  0
  5  6  2  0
  5 10  1  0
  6  7  1  0
  7  8  2  0
  7 12  1  0
  8  9  1  0
  9 10  2  0
 10 11  1  0
M  END
>  <Gold.Gold.Protein.RotatedWaterAtoms>  (527) 


>  <Gold.Id.Protein>  (527) 


>  <Gold.PLP.Chemscore.CHOScore>  (527) 
0.0000

>  <Gold.PLP.Chemscore.Hbond>  (527) 
0.4160

>  <Gold.PLP.Chemscore.Internal.Correction>  (527) 
0.0004

>  <Gold.PLP.Chemscore.Metal>  (527) 
0.0000

>  <Gold.PLP.Fitness>  (527) 
48.9046

>  <Gold.PLP.PLP>  (527) 
-47.6744

>  <Gold.PLP.ligand.clash>  (527) 
0.0000

>  <Gold.PLP.ligand.torsion>  (527) 
0.0091

>  <Gold.PLP.part.buried>  (527) 
-7.3578

>  <Gold.PLP.part.hbond>  (527) 
-0.5127

>  <Gold.PLP.part.metal>  (527) 
0.0000

>  <Gold.PLP.part.nonpolar>  (527) 
-40.3098

>  <Gold.PLP.part.repulsive>  (527) 
0.1684

>  <Gold.Protein.RotatedAtoms>  (527) 


>  <Gold.Protein.RotatedTorsions>  (527) 


>  <Gold.Protein.RotatedWaterAtoms>  (527) 


>  <Gold.Version>  (527) 
5.3.0

>  <PLP.Chemscore.CHOScore>  (527) 


>  <PLP.Chemscore.Hbond>  (527) 


>  <PLP.Chemscore.Internal.Correction>  (527) 


>  <PLP.Chemscore.Metal>  (527) 


>  <PLP.Fitness>  (527) 


>  <PLP.PLP>  (527) 


>  <PLP.ligand.clash>  (527) 


>  <PLP.ligand.torsion>  (527) 


>  <PLP.part.buried>  (527) 


>  <PLP.part.hbond>  (527) 


>  <PLP.part.metal>  (527) 


>  <PLP.part.nonpolar>  (527) 


>  <PLP.part.repulsive>  (527) 


>  <RMSD>  (527) 
0.30972197429

>  <Torsion>  (527) 
172.929186758

>  <TorsionO>  (527) 
24.4968065243

>  <TorsionR>  (527) 
162.574006718

>  <Version>  (527) 


>  <product>  (527) 
47|Compound_23|Compounds_3D_F|sdf|9|dock2|1

>  <rmsd>  (527) 
-1

$$$$
110|565385_49|Aromatic_carboxylic_acids_F|sdf|29|dock1|1
     RDKit          3D

 13 13  0  0  0  0  0  0  0  0999 V2000
  -10.1118  -17.9021   11.6320 C   0  0  0  0  0  0  0  0  0  0  0  0
   -9.7537  -16.5043   11.6546 N   0  0  0  0  0  0  0  0  0  0  0  0
   -8.4330  -16.1187   11.7930 C   0  0  0  0  0  0  0  0  0  0  0  0
   -7.5159  -16.9298   11.9008 O   0  0  0  0  0  0  0  0  0  0  0  0
   -8.1234  -14.6552   11.8105 C   0  0  0  0  0  0  0  0  0  0  0  0
   -9.0636  -13.6551   11.5375 C   0  0  0  0  0  0  0  0  0  0  0  0
   -8.6966  -12.3009   11.5726 C   0  0  0  0  0  0  0  0  0  0  0  0
   -7.3879  -11.9195   11.8809 C   0  0  0  0  0  0  0  0  0  0  0  0
   -6.4486  -12.9235   12.1551 C   0  0  0  0  0  0  0  0  0  0  0  0
   -6.8098  -14.2750   12.1207 C   0  0  0  0  0  0  0  0  0  0  0  0
   -4.6444  -12.5025   12.5849 Br  0  0  0  0  0  0  0  0  0  0  0  0
   -6.9476  -10.6242   11.9372 O   0  0  0  0  0  0  0  0  0  0  0  0
   -7.9020   -9.5910   11.7256 C   0  0  0  0  0  0  0  0  0  0  0  0
  1  2  1  0
  2  3  1  0
  3  4  2  0
  3  5  1  0
  5  6  2  0
  5 10  1  0
  6  7  1  0
  7  8  2  0
  8  9  1  0
  8 12  1  0
  9 10  2  0
  9 11  1  0
 12 13  1  0
M  END
>  <Gold.Gold.Protein.RotatedWaterAtoms>  (528) 


>  <Gold.Id.Protein>  (528) 


>  <Gold.PLP.Chemscore.CHOScore>  (528) 
0.0000

>  <Gold.PLP.Chemscore.Hbond>  (528) 
1.0000

>  <Gold.PLP.Chemscore.Internal.Correction>  (528) 
0.0000

>  <Gold.PLP.Chemscore.Metal>  (528) 
0.0000

>  <Gold.PLP.Fitness>  (528) 
43.9775

>  <Gold.PLP.PLP>  (528) 
-41.0517

>  <Gold.PLP.ligand.clash>  (528) 
0.0000

>  <Gold.PLP.ligand.torsion>  (528) 
0.0371

>  <Gold.PLP.part.buried>  (528) 
-3.7367

>  <Gold.PLP.part.hbond>  (528) 
-1.0000

>  <Gold.PLP.part.metal>  (528) 
0.0000

>  <Gold.PLP.part.nonpolar>  (528) 
-36.7483

>  <Gold.PLP.part.repulsive>  (528) 
0.4054

>  <Gold.Protein.RotatedAtoms>  (528) 


>  <Gold.Protein.RotatedTorsions>  (528) 


>  <Gold.Protein.RotatedWaterAtoms>  (528) 


>  <Gold.Version>  (528) 
5.3.0

>  <PLP.Chemscore.CHOScore>  (528) 


>  <PLP.Chemscore.Hbond>  (528) 


>  <PLP.Chemscore.Internal.Correction>  (528) 


>  <PLP.Chemscore.Metal>  (528) 


>  <PLP.Fitness>  (528) 


>  <PLP.PLP>  (528) 


>  <PLP.ligand.clash>  (528) 


>  <PLP.ligand.torsion>  (528) 


>  <PLP.part.buried>  (528) 


>  <PLP.part.hbond>  (528) 


>  <PLP.part.metal>  (528) 


>  <PLP.part.nonpolar>  (528) 


>  <PLP.part.repulsive>  (528) 


>  <RMSD>  (528) 
0.319376411377

>  <Torsion>  (528) 
169.460450784

>  <TorsionO>  (528) 
9.7963905484

>  <TorsionR>  (528) 
179.256841332

>  <Version>  (528) 


>  <product>  (528) 
47|Compound_23|Compounds_3D_F|sdf|9|dock2|1

>  <rmsd>  (528) 
-1

$$$$
128|137677_56|Aromatic_carboxylic_acids_F|sdf|33|dock1|1
     RDKit          3D

 11 11  0  0  0  0  0  0  0  0999 V2000
   -8.6116  -16.1544   11.8887 C   0  0  0  0  0  0  0  0  0  0  0  0
   -7.9978  -14.8484   11.9215 N   0  0  0  0  0  0  0  0  0  0  0  0
   -8.7778  -13.7008   11.8756 C   0  0  0  0  0  0  0  0  0  0  0  0
  -10.0002  -13.7896   11.8139 O   0  0  0  0  0  0  0  0  0  0  0  0
   -8.0808  -12.3609   11.9017 C   0  0  0  0  0  0  0  0  0  0  0  0
   -8.7916  -11.1851   11.5813 C   0  0  0  0  0  0  0  0  0  0  0  0
   -8.1781   -9.9267   11.5989 C   0  0  0  0  0  0  0  0  0  0  0  0
   -6.8391   -9.8089   11.9369 C   0  0  0  0  0  0  0  0  0  0  0  0
   -6.1124  -10.9502   12.2575 C   0  0  0  0  0  0  0  0  0  0  0  0
   -6.7171  -12.2196   12.2428 C   0  0  0  0  0  0  0  0  0  0  0  0
   -5.5419  -13.6455   12.7121 Br  0  0  0  0  0  0  0  0  0  0  0  0
  1  2  1  0
  2  3  1  0
  3  4  2  0
  3  5  1  0
  5  6  2  0
  5 10  1  0
  6  7  1  0
  7  8  2  0
  8  9  1  0
  9 10  2  0
 10 11  1  0
M  END
>  <Gold.Gold.Protein.RotatedWaterAtoms>  (529) 


>  <Gold.Id.Protein>  (529) 


>  <Gold.PLP.Chemscore.CHOScore>  (529) 
0.0000

>  <Gold.PLP.Chemscore.Hbond>  (529) 
1.0000

>  <Gold.PLP.Chemscore.Internal.Correction>  (529) 
0.0000

>  <Gold.PLP.Chemscore.Metal>  (529) 
0.0000

>  <Gold.PLP.Fitness>  (529) 
45.2899

>  <Gold.PLP.PLP>  (529) 
-42.4444

>  <Gold.PLP.ligand.clash>  (529) 
0.0000

>  <Gold.PLP.ligand.torsion>  (529) 
0.0772

>  <Gold.PLP.part.buried>  (529) 
-6.4690

>  <Gold.PLP.part.hbond>  (529) 
-0.6863

>  <Gold.PLP.part.metal>  (529) 
0.0000

>  <Gold.PLP.part.nonpolar>  (529) 
-34.8280

>  <Gold.PLP.part.repulsive>  (529) 
0.1963

>  <Gold.Protein.RotatedAtoms>  (529) 


>  <Gold.Protein.RotatedTorsions>  (529) 


>  <Gold.Protein.RotatedWaterAtoms>  (529) 


>  <Gold.Version>  (529) 
5.3.0

>  <PLP.Chemscore.CHOScore>  (529) 


>  <PLP.Chemscore.Hbond>  (529) 


>  <PLP.Chemscore.Internal.Correction>  (529) 


>  <PLP.Chemscore.Metal>  (529) 


>  <PLP.Fitness>  (529) 


>  <PLP.PLP>  (529) 


>  <PLP.ligand.clash>  (529) 


>  <PLP.ligand.torsion>  (529) 


>  <PLP.part.buried>  (529) 


>  <PLP.part.hbond>  (529) 


>  <PLP.part.metal>  (529) 


>  <PLP.part.nonpolar>  (529) 


>  <PLP.part.repulsive>  (529) 


>  <RMSD>  (529) 
0.428070490903

>  <Torsion>  (529) 
152.444048788

>  <TorsionO>  (529) 
39.0580871276

>  <TorsionR>  (529) 
168.497864085

>  <Version>  (529) 


>  <product>  (529) 
47|Compound_23|Compounds_3D_F|sdf|9|dock2|1

>  <rmsd>  (529) 
-1

$$$$
974|750794_1404|Aromatic_primary_amines_F|sdf|194|dock3|1
     RDKit          3D

 14 14  0  0  0  0  0  0  0  0999 V2000
  -13.6355  -18.1936    9.4145 C   0  0  0  0  0  0  0  0  0  0  0  0
  -13.2544  -19.4497   10.1732 C   0  0  0  0  0  0  0  0  0  0  0  0
  -11.8731  -19.3506   10.5383 O   0  0  0  0  0  0  0  0  0  0  0  0
  -11.6148  -18.5085   11.5823 C   0  0  0  0  0  0  0  0  0  0  0  0
  -12.3947  -18.2810   12.5004 O   0  0  0  0  0  0  0  0  0  0  0  0
  -10.3031  -17.8985   11.4902 C   0  0  0  0  0  0  0  0  0  0  0  0
   -9.1673  -18.4974   10.9931 C   0  0  0  0  0  0  0  0  0  0  0  0
   -8.1448  -17.6055   11.0758 O   0  0  0  0  0  0  0  0  0  0  0  0
   -8.7110  -16.4917   11.6237 C   0  0  0  0  0  0  0  0  0  0  0  0
   -9.9933  -16.6110   11.8915 N   0  0  0  0  0  0  0  0  0  0  0  0
   -7.9611  -15.3718   11.8549 N   0  0  0  0  0  0  0  0  0  0  0  0
   -8.5046  -14.1249   12.0676 C   0  0  0  0  0  0  0  0  0  0  0  0
   -9.6950  -13.8313   12.1035 O   0  0  0  0  0  0  0  0  0  0  0  0
   -7.4448  -13.0785   12.3021 C   0  0  0  0  0  0  0  0  0  0  0  0
  1  2  1  0
  2  3  1  0
  3  4  1  0
  4  5  2  0
  4  6  1  0
  6  7  2  0
  6 10  1  0
  7  8  1  0
  8  9  1  0
  9 10  2  0
  9 11  1  0
 11 12  1  0
 12 13  2  0
 12 14  1  0
M  END
>  <Gold.Gold.Protein.RotatedWaterAtoms>  (530) 


>  <Gold.Id.Protein>  (530) 


>  <Gold.PLP.Chemscore.CHOScore>  (530) 
0.0000

>  <Gold.PLP.Chemscore.Hbond>  (530) 
2.0000

>  <Gold.PLP.Chemscore.Internal.Correction>  (530) 
0.0053

>  <Gold.PLP.Chemscore.Metal>  (530) 
0.0000

>  <Gold.PLP.Fitness>  (530) 
36.8047

>  <Gold.PLP.PLP>  (530) 
-32.7996

>  <Gold.PLP.ligand.clash>  (530) 
0.0000

>  <Gold.PLP.ligand.torsion>  (530) 
1.0001

>  <Gold.PLP.part.buried>  (530) 
-6.5206

>  <Gold.PLP.part.hbond>  (530) 
-2.9156

>  <Gold.PLP.part.metal>  (530) 
0.0000

>  <Gold.PLP.part.nonpolar>  (530) 
-23.4080

>  <Gold.PLP.part.repulsive>  (530) 
0.3100

>  <Gold.Protein.RotatedAtoms>  (530) 


>  <Gold.Protein.RotatedTorsions>  (530) 


>  <Gold.Protein.RotatedWaterAtoms>  (530) 


>  <Gold.Version>  (530) 
5.3.0

>  <PLP.Chemscore.CHOScore>  (530) 


>  <PLP.Chemscore.Hbond>  (530) 


>  <PLP.Chemscore.Internal.Correction>  (530) 


>  <PLP.Chemscore.Metal>  (530) 


>  <PLP.Fitness>  (530) 


>  <PLP.PLP>  (530) 


>  <PLP.ligand.clash>  (530) 


>  <PLP.ligand.torsion>  (530) 


>  <PLP.part.buried>  (530) 


>  <PLP.part.hbond>  (530) 


>  <PLP.part.metal>  (530) 


>  <PLP.part.nonpolar>  (530) 


>  <PLP.part.repulsive>  (530) 


>  <RMSD>  (530) 
0.499949349045

>  <Torsion>  (530) 
159.973716791

>  <TorsionO>  (530) 
19.1052109979

>  <TorsionR>  (530) 
179.078927789

>  <Version>  (530) 


>  <product>  (530) 
47|Compound_23|Compounds_3D_F|sdf|9|dock2|1

>  <rmsd>  (530) 
-1

$$$$
1884|M3006_1781|Aromatic_primary_amines_F|sdf|361|dock3|1
     RDKit          3D

 31 34  0  0  0  0  0  0  0  0999 V2000
  -14.4210  -19.8971    8.7934 C   0  0  0  0  0  0  0  0  0  0  0  0
  -13.9762  -19.4927   10.1894 C   0  0  0  0  0  0  0  0  0  0  0  0
  -14.1356  -20.6409   11.1817 C   0  0  0  0  0  0  0  0  0  0  0  0
  -13.5197  -20.3070   12.5189 C   0  0  0  0  0  0  0  0  0  0  0  0
  -12.9307  -19.2724   12.7954 O   0  0  0  0  0  0  0  0  0  0  0  0
  -13.7110  -21.3451   13.3845 O   0  0  0  0  0  0  0  0  0  0  0  0
  -12.9425  -21.2698   14.5900 C   0  0  0  0  0  0  0  0  0  0  0  0
  -12.8849  -22.6189   15.2889 C   0  0  0  0  0  0  0  0  0  0  0  0
  -11.6552  -22.4172   16.1494 C   0  0  0  0  0  0  0  0  0  0  0  0
  -11.2420  -23.7410   16.7624 C   0  0  0  0  0  0  0  0  0  0  0  0
  -12.3024  -24.2223   17.5862 O   0  0  0  0  0  0  0  0  0  0  0  0
  -13.7888  -24.3384   16.9603 P   0  0  0  0  0  0  0  0  0  0  0  0
  -14.8775  -24.6795   17.9243 O   0  0  0  0  0  0  0  0  0  0  0  0
  -13.9839  -22.9641   16.1174 O   0  0  0  0  0  0  0  0  0  0  0  0
  -13.5991  -25.4435   15.8075 O   0  0  0  0  0  0  0  0  0  0  0  0
  -10.6922  -21.8161   15.2889 O   0  0  0  0  0  0  0  0  0  0  0  0
  -11.4338  -20.9664   14.3653 C   0  0  0  0  0  0  0  0  0  0  0  0
  -10.9052  -21.2017   13.0342 N   0  0  0  0  0  0  0  0  0  0  0  0
  -10.7814  -22.4114   12.4013 C   0  0  0  0  0  0  0  0  0  0  0  0
  -10.2640  -22.2918   11.1953 N   0  0  0  0  0  0  0  0  0  0  0  0
  -10.0274  -20.9476   11.0424 C   0  0  0  0  0  0  0  0  0  0  0  0
  -10.4203  -20.2487   12.1733 C   0  0  0  0  0  0  0  0  0  0  0  0
  -10.3338  -18.9216   12.3641 N   0  0  0  0  0  0  0  0  0  0  0  0
   -9.8057  -18.2730   11.3024 C   0  0  0  0  0  0  0  0  0  0  0  0
   -9.3808  -18.8370   10.1545 N   0  0  0  0  0  0  0  0  0  0  0  0
   -9.4895  -20.1691   10.0244 C   0  0  0  0  0  0  0  0  0  0  0  0
   -9.0330  -20.6622    8.8349 O   0  0  0  0  0  0  0  0  0  0  0  0
   -9.7222  -16.8901   11.4793 N   0  0  0  0  0  0  0  0  0  0  0  0
   -8.5796  -16.1798   11.7761 C   0  0  0  0  0  0  0  0  0  0  0  0
   -7.4445  -16.6221   11.9131 O   0  0  0  0  0  0  0  0  0  0  0  0
   -8.8524  -14.7024   11.8973 C   0  0  0  0  0  0  0  0  0  0  0  0
  1  2  1  0
  2  3  1  0
  3  4  1  0
  4  5  2  0
  4  6  1  0
  6  7  1  0
  7  8  1  0
  7 17  1  0
  8  9  1  0
  8 14  1  0
  9 10  1  0
  9 16  1  0
 10 11  1  0
 11 12  1  0
 12 13  2  0
 12 14  1  0
 12 15  1  0
 16 17  1  0
 17 18  1  0
 18 19  1  0
 18 22  1  0
 19 20  2  0
 20 21  1  0
 21 22  2  0
 21 26  1  0
 22 23  1  0
 23 24  2  0
 24 25  1  0
 24 28  1  0
 25 26  2  0
 26 27  1  0
 28 29  1  0
 29 30  2  0
 29 31  1  0
M  END
>  <Gold.Gold.Protein.RotatedWaterAtoms>  (531) 


>  <Gold.Id.Protein>  (531) 


>  <Gold.PLP.Chemscore.CHOScore>  (531) 
0.0000

>  <Gold.PLP.Chemscore.Hbond>  (531) 
1.2080

>  <Gold.PLP.Chemscore.Internal.Correction>  (531) 
0.1232

>  <Gold.PLP.Chemscore.Metal>  (531) 
0.0000

>  <Gold.PLP.Fitness>  (531) 
47.7145

>  <Gold.PLP.PLP>  (531) 
-46.0218

>  <Gold.PLP.ligand.clash>  (531) 
0.0000

>  <Gold.PLP.ligand.torsion>  (531) 
1.0272

>  <Gold.PLP.part.buried>  (531) 
-2.2958

>  <Gold.PLP.part.hbond>  (531) 
-4.0214

>  <Gold.PLP.part.metal>  (531) 
0.0000

>  <Gold.PLP.part.nonpolar>  (531) 
-41.4699

>  <Gold.PLP.part.repulsive>  (531) 
0.9524

>  <Gold.Protein.RotatedAtoms>  (531) 


>  <Gold.Protein.RotatedTorsions>  (531) 


>  <Gold.Protein.RotatedWaterAtoms>  (531) 


>  <Gold.Version>  (531) 
5.3.0

>  <PLP.Chemscore.CHOScore>  (531) 


>  <PLP.Chemscore.Hbond>  (531) 


>  <PLP.Chemscore.Internal.Correction>  (531) 


>  <PLP.Chemscore.Metal>  (531) 


>  <PLP.Fitness>  (531) 


>  <PLP.PLP>  (531) 


>  <PLP.ligand.clash>  (531) 


>  <PLP.ligand.torsion>  (531) 


>  <PLP.part.buried>  (531) 


>  <PLP.part.hbond>  (531) 


>  <PLP.part.metal>  (531) 


>  <PLP.part.nonpolar>  (531) 


>  <PLP.part.repulsive>  (531) 


>  <RMSD>  (531) 
0.291955871297

>  <Torsion>  (531) 
171.923704933

>  <TorsionO>  (531) 
6.03609353985

>  <TorsionR>  (531) 
177.959798473

>  <Version>  (531) 


>  <product>  (531) 
47|Compound_23|Compounds_3D_F|sdf|9|dock2|1

>  <rmsd>  (531) 
-1

$$$$
193|32168_281|Aromatic_primary_amines_F|sdf|39|dock6|1
     RDKit          3D

 23 25  0  0  0  0  0  0  0  0999 V2000
   -7.8439  -12.1461   11.8919 C   0  0  0  0  0  0  0  0  0  0  0  0
   -8.5691  -13.4472   11.6781 C   0  0  0  0  0  0  0  0  0  0  0  0
   -9.7886  -13.4981   11.5208 O   0  0  0  0  0  0  0  0  0  0  0  0
   -7.7264  -14.5390   11.7020 N   0  0  0  0  0  0  0  0  0  0  0  0
   -8.1889  -15.8197   11.5323 C   0  0  0  0  0  0  0  0  0  0  0  0
   -9.4747  -16.2039   11.8163 N   0  0  0  0  0  0  0  0  0  0  0  0
   -9.5964  -17.5375   11.5379 C   0  0  0  0  0  0  0  0  0  0  0  0
  -10.6643  -18.4283   11.6415 C   0  0  0  0  0  0  0  0  0  0  0  0
  -10.4051  -19.7586   11.2778 C   0  0  0  0  0  0  0  0  0  0  0  0
   -9.1530  -20.1507   10.7795 C   0  0  0  0  0  0  0  0  0  0  0  0
   -8.1017  -19.2294   10.6839 C   0  0  0  0  0  0  0  0  0  0  0  0
   -8.3349  -17.9032   11.0783 C   0  0  0  0  0  0  0  0  0  0  0  0
   -7.4773  -16.8281   11.0838 N   0  0  0  0  0  0  0  0  0  0  0  0
   -8.8530  -21.7658   10.2429 Cl  0  0  0  0  0  0  0  0  0  0  0  0
  -11.4669  -20.6323   11.3734 O   0  0  0  0  0  0  0  0  0  0  0  0
  -12.5262  -20.4408   10.5053 C   0  0  0  0  0  0  0  0  0  0  0  0
  -13.3188  -19.2846   10.5304 C   0  0  0  0  0  0  0  0  0  0  0  0
  -14.3665  -19.1344    9.6224 C   0  0  0  0  0  0  0  0  0  0  0  0
  -14.6219  -20.1279    8.6796 C   0  0  0  0  0  0  0  0  0  0  0  0
  -13.8238  -21.2756    8.6345 C   0  0  0  0  0  0  0  0  0  0  0  0
  -12.7674  -21.4342    9.5416 C   0  0  0  0  0  0  0  0  0  0  0  0
  -11.7588  -22.8458    9.4996 Cl  0  0  0  0  0  0  0  0  0  0  0  0
  -14.1988  -22.4584    7.4296 Cl  0  0  0  0  0  0  0  0  0  0  0  0
  1  2  1  0
  2  3  2  0
  2  4  1  0
  4  5  1  0
  5  6  1  0
  5 13  2  0
  6  7  1  0
  7  8  2  0
  7 12  1  0
  8  9  1  0
  9 10  2  0
  9 15  1  0
 10 11  1  0
 10 14  1  0
 11 12  2  0
 12 13  1  0
 15 16  1  0
 16 17  2  0
 16 21  1  0
 17 18  1  0
 18 19  2  0
 19 20  1  0
 20 21  2  0
 20 23  1  0
 21 22  1  0
M  END
>  <Gold.Gold.Protein.RotatedWaterAtoms>  (532) 


>  <Gold.Id.Protein>  (532) 


>  <Gold.PLP.Chemscore.CHOScore>  (532) 
0.0000

>  <Gold.PLP.Chemscore.Hbond>  (532) 
1.0000

>  <Gold.PLP.Chemscore.Internal.Correction>  (532) 
0.0086

>  <Gold.PLP.Chemscore.Metal>  (532) 
0.0000

>  <Gold.PLP.Fitness>  (532) 
50.7139

>  <Gold.PLP.PLP>  (532) 
-48.1706

>  <Gold.PLP.ligand.clash>  (532) 
0.0000

>  <Gold.PLP.ligand.torsion>  (532) 
0.2327

>  <Gold.PLP.part.buried>  (532) 
-6.5205

>  <Gold.PLP.part.hbond>  (532) 
-2.0000

>  <Gold.PLP.part.metal>  (532) 
0.0000

>  <Gold.PLP.part.nonpolar>  (532) 
-39.3857

>  <Gold.PLP.part.repulsive>  (532) 
0.3298

>  <Gold.Protein.RotatedAtoms>  (532) 


>  <Gold.Protein.RotatedTorsions>  (532) 


>  <Gold.Protein.RotatedWaterAtoms>  (532) 


>  <Gold.Version>  (532) 
5.3.0

>  <PLP.Chemscore.CHOScore>  (532) 


>  <PLP.Chemscore.Hbond>  (532) 


>  <PLP.Chemscore.Internal.Correction>  (532) 


>  <PLP.Chemscore.Metal>  (532) 


>  <PLP.Fitness>  (532) 


>  <PLP.PLP>  (532) 


>  <PLP.ligand.clash>  (532) 


>  <PLP.ligand.torsion>  (532) 


>  <PLP.part.buried>  (532) 


>  <PLP.part.hbond>  (532) 


>  <PLP.part.metal>  (532) 


>  <PLP.part.nonpolar>  (532) 


>  <PLP.part.repulsive>  (532) 


>  <RMSD>  (532) 
0.439733510035

>  <Torsion>  (532) 
177.672185574

>  <TorsionO>  (532) 
4.31728583372

>  <TorsionR>  (532) 
173.35489974

>  <Version>  (532) 


>  <product>  (532) 
47|Compound_23|Compounds_3D_F|sdf|9|dock2|1

>  <rmsd>  (532) 
-1

$$$$
45|Compound_21|Compounds_3D_F|sdf|8|dock8|1
     RDKit          3D

 10  9  0  0  0  0  0  0  0  0999 V2000
   -5.2612  -15.5576    9.2655 O   0  0  0  0  0  0  0  0  0  0  0  0
   -5.9706  -16.0914   10.3848 C   0  0  0  0  0  0  0  0  0  0  0  0
   -5.0627  -16.0833   11.6157 C   0  0  0  0  0  0  0  0  0  0  0  0
   -4.6863  -14.7047   11.9361 N   0  0  0  0  0  0  0  0  0  0  0  0
   -5.6407  -13.7790   12.1564 C   0  0  0  0  0  0  0  0  0  0  0  0
   -6.8115  -14.0878   12.0890 O   0  0  0  0  0  0  0  0  0  0  0  0
   -5.2371  -12.3009   12.4998 B   0  0  0  0  0  0  0  0  0  0  0  0
   -5.8071  -16.6976   12.8027 C   0  0  0  0  0  0  0  0  0  0  0  0
   -3.8029  -16.9021   11.3251 C   0  0  0  0  0  0  0  0  0  0  0  0
   -3.0851  -16.3053   10.2432 O   0  0  0  0  0  0  0  0  0  0  0  0
  1  2  1  0
  2  3  1  0
  3  4  1  0
  3  8  1  0
  3  9  1  0
  4  5  1  0
  5  6  2  0
  5  7  1  0
  9 10  1  0
M  END
>  <Gold.Gold.Protein.RotatedWaterAtoms>  (533) 


>  <Gold.Id.Protein>  (533) 


>  <Gold.PLP.Chemscore.CHOScore>  (533) 
0.0000

>  <Gold.PLP.Chemscore.Hbond>  (533) 
2.9280

>  <Gold.PLP.Chemscore.Internal.Correction>  (533) 
0.0005

>  <Gold.PLP.Chemscore.Metal>  (533) 
0.0000

>  <Gold.PLP.Fitness>  (533) 
36.9982

>  <Gold.PLP.PLP>  (533) 
-28.2653

>  <Gold.PLP.ligand.clash>  (533) 
0.0000

>  <Gold.PLP.ligand.torsion>  (533) 
0.0258

>  <Gold.PLP.part.buried>  (533) 
-5.5261

>  <Gold.PLP.part.hbond>  (533) 
-4.7590

>  <Gold.PLP.part.metal>  (533) 
0.0000

>  <Gold.PLP.part.nonpolar>  (533) 
-18.2837

>  <Gold.PLP.part.repulsive>  (533) 
0.2488

>  <Gold.Protein.RotatedAtoms>  (533) 


>  <Gold.Protein.RotatedTorsions>  (533) 


>  <Gold.Protein.RotatedWaterAtoms>  (533) 


>  <Gold.Version>  (533) 
5.3.0

>  <PLP.Chemscore.CHOScore>  (533) 


>  <PLP.Chemscore.Hbond>  (533) 


>  <PLP.Chemscore.Internal.Correction>  (533) 


>  <PLP.Chemscore.Metal>  (533) 


>  <PLP.Fitness>  (533) 


>  <PLP.PLP>  (533) 


>  <PLP.ligand.clash>  (533) 


>  <PLP.ligand.torsion>  (533) 


>  <PLP.part.buried>  (533) 


>  <PLP.part.hbond>  (533) 


>  <PLP.part.metal>  (533) 


>  <PLP.part.nonpolar>  (533) 


>  <PLP.part.repulsive>  (533) 


>  <Version>  (533) 


$$$$
94|664022_40|Aromatic_carboxylic_acids_F|sdf|24|dock1|1
     RDKit          3D

 12 12  0  0  0  0  0  0  0  0999 V2000
   -8.2596  -17.1212   11.4595 C   0  0  0  0  0  0  0  0  0  0  0  0
   -7.6366  -15.8367   11.6688 N   0  0  0  0  0  0  0  0  0  0  0  0
   -8.3409  -14.6553   11.5719 C   0  0  0  0  0  0  0  0  0  0  0  0
   -9.5296  -14.5547   11.2978 O   0  0  0  0  0  0  0  0  0  0  0  0
   -7.5420  -13.4431   11.8503 C   0  0  0  0  0  0  0  0  0  0  0  0
   -8.1627  -12.1983   11.6738 C   0  0  0  0  0  0  0  0  0  0  0  0
   -7.4390  -11.0301   11.9055 C   0  0  0  0  0  0  0  0  0  0  0  0
   -6.1069  -11.0910   12.3103 C   0  0  0  0  0  0  0  0  0  0  0  0
   -5.4897  -12.3324   12.4853 C   0  0  0  0  0  0  0  0  0  0  0  0
   -6.2035  -13.5136   12.2549 C   0  0  0  0  0  0  0  0  0  0  0  0
   -5.3062  -15.1564   12.5638 Br  0  0  0  0  0  0  0  0  0  0  0  0
   -8.1960   -9.5005   11.6887 Cl  0  0  0  0  0  0  0  0  0  0  0  0
  1  2  1  0
  2  3  1  0
  3  4  2  0
  3  5  1  0
  5  6  2  0
  5 10  1  0
  6  7  1  0
  7  8  2  0
  7 12  1  0
  8  9  1  0
  9 10  2  0
 10 11  1  0
M  END
>  <Gold.Gold.Protein.RotatedWaterAtoms>  (534) 


>  <Gold.Id.Protein>  (534) 


>  <Gold.PLP.Chemscore.CHOScore>  (534) 
0.0000

>  <Gold.PLP.Chemscore.Hbond>  (534) 
0.4160

>  <Gold.PLP.Chemscore.Internal.Correction>  (534) 
0.0004

>  <Gold.PLP.Chemscore.Metal>  (534) 
0.0000

>  <Gold.PLP.Fitness>  (534) 
48.9046

>  <Gold.PLP.PLP>  (534) 
-47.6744

>  <Gold.PLP.ligand.clash>  (534) 
0.0000

>  <Gold.PLP.ligand.torsion>  (534) 
0.0091

>  <Gold.PLP.part.buried>  (534) 
-7.3578

>  <Gold.PLP.part.hbond>  (534) 
-0.5127

>  <Gold.PLP.part.metal>  (534) 
0.0000

>  <Gold.PLP.part.nonpolar>  (534) 
-40.3098

>  <Gold.PLP.part.repulsive>  (534) 
0.1684

>  <Gold.Protein.RotatedAtoms>  (534) 


>  <Gold.Protein.RotatedTorsions>  (534) 


>  <Gold.Protein.RotatedWaterAtoms>  (534) 


>  <Gold.Version>  (534) 
5.3.0

>  <PLP.Chemscore.CHOScore>  (534) 


>  <PLP.Chemscore.Hbond>  (534) 


>  <PLP.Chemscore.Internal.Correction>  (534) 


>  <PLP.Chemscore.Metal>  (534) 


>  <PLP.Fitness>  (534) 


>  <PLP.PLP>  (534) 


>  <PLP.ligand.clash>  (534) 


>  <PLP.ligand.torsion>  (534) 


>  <PLP.part.buried>  (534) 


>  <PLP.part.hbond>  (534) 


>  <PLP.part.metal>  (534) 


>  <PLP.part.nonpolar>  (534) 


>  <PLP.part.repulsive>  (534) 


>  <RMSD>  (534) 
0.30972197429

>  <Torsion>  (534) 
172.929186758

>  <TorsionO>  (534) 
24.4968065243

>  <TorsionR>  (534) 
162.574006718

>  <Version>  (534) 


>  <product>  (534) 
45|Compound_21|Compounds_3D_F|sdf|8|dock8|1

>  <rmsd>  (534) 
-1

$$$$
110|565385_49|Aromatic_carboxylic_acids_F|sdf|29|dock1|1
     RDKit          3D

 13 13  0  0  0  0  0  0  0  0999 V2000
  -10.1118  -17.9021   11.6320 C   0  0  0  0  0  0  0  0  0  0  0  0
   -9.7537  -16.5043   11.6546 N   0  0  0  0  0  0  0  0  0  0  0  0
   -8.4330  -16.1187   11.7930 C   0  0  0  0  0  0  0  0  0  0  0  0
   -7.5159  -16.9298   11.9008 O   0  0  0  0  0  0  0  0  0  0  0  0
   -8.1234  -14.6552   11.8105 C   0  0  0  0  0  0  0  0  0  0  0  0
   -9.0636  -13.6551   11.5375 C   0  0  0  0  0  0  0  0  0  0  0  0
   -8.6966  -12.3009   11.5726 C   0  0  0  0  0  0  0  0  0  0  0  0
   -7.3879  -11.9195   11.8809 C   0  0  0  0  0  0  0  0  0  0  0  0
   -6.4486  -12.9235   12.1551 C   0  0  0  0  0  0  0  0  0  0  0  0
   -6.8098  -14.2750   12.1207 C   0  0  0  0  0  0  0  0  0  0  0  0
   -4.6444  -12.5025   12.5849 Br  0  0  0  0  0  0  0  0  0  0  0  0
   -6.9476  -10.6242   11.9372 O   0  0  0  0  0  0  0  0  0  0  0  0
   -7.9020   -9.5910   11.7256 C   0  0  0  0  0  0  0  0  0  0  0  0
  1  2  1  0
  2  3  1  0
  3  4  2  0
  3  5  1  0
  5  6  2  0
  5 10  1  0
  6  7  1  0
  7  8  2  0
  8  9  1  0
  8 12  1  0
  9 10  2  0
  9 11  1  0
 12 13  1  0
M  END
>  <Gold.Gold.Protein.RotatedWaterAtoms>  (535) 


>  <Gold.Id.Protein>  (535) 


>  <Gold.PLP.Chemscore.CHOScore>  (535) 
0.0000

>  <Gold.PLP.Chemscore.Hbond>  (535) 
1.0000

>  <Gold.PLP.Chemscore.Internal.Correction>  (535) 
0.0000

>  <Gold.PLP.Chemscore.Metal>  (535) 
0.0000

>  <Gold.PLP.Fitness>  (535) 
43.9775

>  <Gold.PLP.PLP>  (535) 
-41.0517

>  <Gold.PLP.ligand.clash>  (535) 
0.0000

>  <Gold.PLP.ligand.torsion>  (535) 
0.0371

>  <Gold.PLP.part.buried>  (535) 
-3.7367

>  <Gold.PLP.part.hbond>  (535) 
-1.0000

>  <Gold.PLP.part.metal>  (535) 
0.0000

>  <Gold.PLP.part.nonpolar>  (535) 
-36.7483

>  <Gold.PLP.part.repulsive>  (535) 
0.4054

>  <Gold.Protein.RotatedAtoms>  (535) 


>  <Gold.Protein.RotatedTorsions>  (535) 


>  <Gold.Protein.RotatedWaterAtoms>  (535) 


>  <Gold.Version>  (535) 
5.3.0

>  <PLP.Chemscore.CHOScore>  (535) 


>  <PLP.Chemscore.Hbond>  (535) 


>  <PLP.Chemscore.Internal.Correction>  (535) 


>  <PLP.Chemscore.Metal>  (535) 


>  <PLP.Fitness>  (535) 


>  <PLP.PLP>  (535) 


>  <PLP.ligand.clash>  (535) 


>  <PLP.ligand.torsion>  (535) 


>  <PLP.part.buried>  (535) 


>  <PLP.part.hbond>  (535) 


>  <PLP.part.metal>  (535) 


>  <PLP.part.nonpolar>  (535) 


>  <PLP.part.repulsive>  (535) 


>  <RMSD>  (535) 
0.319376411377

>  <Torsion>  (535) 
169.460450784

>  <TorsionO>  (535) 
9.7963905484

>  <TorsionR>  (535) 
179.256841332

>  <Version>  (535) 


>  <product>  (535) 
45|Compound_21|Compounds_3D_F|sdf|8|dock8|1

>  <rmsd>  (535) 
-1

$$$$
128|137677_56|Aromatic_carboxylic_acids_F|sdf|33|dock1|1
     RDKit          3D

 11 11  0  0  0  0  0  0  0  0999 V2000
   -8.6116  -16.1544   11.8887 C   0  0  0  0  0  0  0  0  0  0  0  0
   -7.9978  -14.8484   11.9215 N   0  0  0  0  0  0  0  0  0  0  0  0
   -8.7778  -13.7008   11.8756 C   0  0  0  0  0  0  0  0  0  0  0  0
  -10.0002  -13.7896   11.8139 O   0  0  0  0  0  0  0  0  0  0  0  0
   -8.0808  -12.3609   11.9017 C   0  0  0  0  0  0  0  0  0  0  0  0
   -8.7916  -11.1851   11.5813 C   0  0  0  0  0  0  0  0  0  0  0  0
   -8.1781   -9.9267   11.5989 C   0  0  0  0  0  0  0  0  0  0  0  0
   -6.8391   -9.8089   11.9369 C   0  0  0  0  0  0  0  0  0  0  0  0
   -6.1124  -10.9502   12.2575 C   0  0  0  0  0  0  0  0  0  0  0  0
   -6.7171  -12.2196   12.2428 C   0  0  0  0  0  0  0  0  0  0  0  0
   -5.5419  -13.6455   12.7121 Br  0  0  0  0  0  0  0  0  0  0  0  0
  1  2  1  0
  2  3  1  0
  3  4  2  0
  3  5  1  0
  5  6  2  0
  5 10  1  0
  6  7  1  0
  7  8  2  0
  8  9  1  0
  9 10  2  0
 10 11  1  0
M  END
>  <Gold.Gold.Protein.RotatedWaterAtoms>  (536) 


>  <Gold.Id.Protein>  (536) 


>  <Gold.PLP.Chemscore.CHOScore>  (536) 
0.0000

>  <Gold.PLP.Chemscore.Hbond>  (536) 
1.0000

>  <Gold.PLP.Chemscore.Internal.Correction>  (536) 
0.0000

>  <Gold.PLP.Chemscore.Metal>  (536) 
0.0000

>  <Gold.PLP.Fitness>  (536) 
45.2899

>  <Gold.PLP.PLP>  (536) 
-42.4444

>  <Gold.PLP.ligand.clash>  (536) 
0.0000

>  <Gold.PLP.ligand.torsion>  (536) 
0.0772

>  <Gold.PLP.part.buried>  (536) 
-6.4690

>  <Gold.PLP.part.hbond>  (536) 
-0.6863

>  <Gold.PLP.part.metal>  (536) 
0.0000

>  <Gold.PLP.part.nonpolar>  (536) 
-34.8280

>  <Gold.PLP.part.repulsive>  (536) 
0.1963

>  <Gold.Protein.RotatedAtoms>  (536) 


>  <Gold.Protein.RotatedTorsions>  (536) 


>  <Gold.Protein.RotatedWaterAtoms>  (536) 


>  <Gold.Version>  (536) 
5.3.0

>  <PLP.Chemscore.CHOScore>  (536) 


>  <PLP.Chemscore.Hbond>  (536) 


>  <PLP.Chemscore.Internal.Correction>  (536) 


>  <PLP.Chemscore.Metal>  (536) 


>  <PLP.Fitness>  (536) 


>  <PLP.PLP>  (536) 


>  <PLP.ligand.clash>  (536) 


>  <PLP.ligand.torsion>  (536) 


>  <PLP.part.buried>  (536) 


>  <PLP.part.hbond>  (536) 


>  <PLP.part.metal>  (536) 


>  <PLP.part.nonpolar>  (536) 


>  <PLP.part.repulsive>  (536) 


>  <RMSD>  (536) 
0.428070490903

>  <Torsion>  (536) 
152.444048788

>  <TorsionO>  (536) 
39.0580871276

>  <TorsionR>  (536) 
168.497864085

>  <Version>  (536) 


>  <product>  (536) 
45|Compound_21|Compounds_3D_F|sdf|8|dock8|1

>  <rmsd>  (536) 
-1

$$$$
974|750794_1404|Aromatic_primary_amines_F|sdf|194|dock3|1
     RDKit          3D

 14 14  0  0  0  0  0  0  0  0999 V2000
  -13.6355  -18.1936    9.4145 C   0  0  0  0  0  0  0  0  0  0  0  0
  -13.2544  -19.4497   10.1732 C   0  0  0  0  0  0  0  0  0  0  0  0
  -11.8731  -19.3506   10.5383 O   0  0  0  0  0  0  0  0  0  0  0  0
  -11.6148  -18.5085   11.5823 C   0  0  0  0  0  0  0  0  0  0  0  0
  -12.3947  -18.2810   12.5004 O   0  0  0  0  0  0  0  0  0  0  0  0
  -10.3031  -17.8985   11.4902 C   0  0  0  0  0  0  0  0  0  0  0  0
   -9.1673  -18.4974   10.9931 C   0  0  0  0  0  0  0  0  0  0  0  0
   -8.1448  -17.6055   11.0758 O   0  0  0  0  0  0  0  0  0  0  0  0
   -8.7110  -16.4917   11.6237 C   0  0  0  0  0  0  0  0  0  0  0  0
   -9.9933  -16.6110   11.8915 N   0  0  0  0  0  0  0  0  0  0  0  0
   -7.9611  -15.3718   11.8549 N   0  0  0  0  0  0  0  0  0  0  0  0
   -8.5046  -14.1249   12.0676 C   0  0  0  0  0  0  0  0  0  0  0  0
   -9.6950  -13.8313   12.1035 O   0  0  0  0  0  0  0  0  0  0  0  0
   -7.4448  -13.0785   12.3021 C   0  0  0  0  0  0  0  0  0  0  0  0
  1  2  1  0
  2  3  1  0
  3  4  1  0
  4  5  2  0
  4  6  1  0
  6  7  2  0
  6 10  1  0
  7  8  1  0
  8  9  1  0
  9 10  2  0
  9 11  1  0
 11 12  1  0
 12 13  2  0
 12 14  1  0
M  END
>  <Gold.Gold.Protein.RotatedWaterAtoms>  (537) 


>  <Gold.Id.Protein>  (537) 


>  <Gold.PLP.Chemscore.CHOScore>  (537) 
0.0000

>  <Gold.PLP.Chemscore.Hbond>  (537) 
2.0000

>  <Gold.PLP.Chemscore.Internal.Correction>  (537) 
0.0053

>  <Gold.PLP.Chemscore.Metal>  (537) 
0.0000

>  <Gold.PLP.Fitness>  (537) 
36.8047

>  <Gold.PLP.PLP>  (537) 
-32.7996

>  <Gold.PLP.ligand.clash>  (537) 
0.0000

>  <Gold.PLP.ligand.torsion>  (537) 
1.0001

>  <Gold.PLP.part.buried>  (537) 
-6.5206

>  <Gold.PLP.part.hbond>  (537) 
-2.9156

>  <Gold.PLP.part.metal>  (537) 
0.0000

>  <Gold.PLP.part.nonpolar>  (537) 
-23.4080

>  <Gold.PLP.part.repulsive>  (537) 
0.3100

>  <Gold.Protein.RotatedAtoms>  (537) 


>  <Gold.Protein.RotatedTorsions>  (537) 


>  <Gold.Protein.RotatedWaterAtoms>  (537) 


>  <Gold.Version>  (537) 
5.3.0

>  <PLP.Chemscore.CHOScore>  (537) 


>  <PLP.Chemscore.Hbond>  (537) 


>  <PLP.Chemscore.Internal.Correction>  (537) 


>  <PLP.Chemscore.Metal>  (537) 


>  <PLP.Fitness>  (537) 


>  <PLP.PLP>  (537) 


>  <PLP.ligand.clash>  (537) 


>  <PLP.ligand.torsion>  (537) 


>  <PLP.part.buried>  (537) 


>  <PLP.part.hbond>  (537) 


>  <PLP.part.metal>  (537) 


>  <PLP.part.nonpolar>  (537) 


>  <PLP.part.repulsive>  (537) 


>  <RMSD>  (537) 
0.499949349045

>  <Torsion>  (537) 
159.973716791

>  <TorsionO>  (537) 
19.1052109979

>  <TorsionR>  (537) 
179.078927789

>  <Version>  (537) 


>  <product>  (537) 
45|Compound_21|Compounds_3D_F|sdf|8|dock8|1

>  <rmsd>  (537) 
-1

$$$$
1884|M3006_1781|Aromatic_primary_amines_F|sdf|361|dock3|1
     RDKit          3D

 31 34  0  0  0  0  0  0  0  0999 V2000
  -14.4210  -19.8971    8.7934 C   0  0  0  0  0  0  0  0  0  0  0  0
  -13.9762  -19.4927   10.1894 C   0  0  0  0  0  0  0  0  0  0  0  0
  -14.1356  -20.6409   11.1817 C   0  0  0  0  0  0  0  0  0  0  0  0
  -13.5197  -20.3070   12.5189 C   0  0  0  0  0  0  0  0  0  0  0  0
  -12.9307  -19.2724   12.7954 O   0  0  0  0  0  0  0  0  0  0  0  0
  -13.7110  -21.3451   13.3845 O   0  0  0  0  0  0  0  0  0  0  0  0
  -12.9425  -21.2698   14.5900 C   0  0  0  0  0  0  0  0  0  0  0  0
  -12.8849  -22.6189   15.2889 C   0  0  0  0  0  0  0  0  0  0  0  0
  -11.6552  -22.4172   16.1494 C   0  0  0  0  0  0  0  0  0  0  0  0
  -11.2420  -23.7410   16.7624 C   0  0  0  0  0  0  0  0  0  0  0  0
  -12.3024  -24.2223   17.5862 O   0  0  0  0  0  0  0  0  0  0  0  0
  -13.7888  -24.3384   16.9603 P   0  0  0  0  0  0  0  0  0  0  0  0
  -14.8775  -24.6795   17.9243 O   0  0  0  0  0  0  0  0  0  0  0  0
  -13.9839  -22.9641   16.1174 O   0  0  0  0  0  0  0  0  0  0  0  0
  -13.5991  -25.4435   15.8075 O   0  0  0  0  0  0  0  0  0  0  0  0
  -10.6922  -21.8161   15.2889 O   0  0  0  0  0  0  0  0  0  0  0  0
  -11.4338  -20.9664   14.3653 C   0  0  0  0  0  0  0  0  0  0  0  0
  -10.9052  -21.2017   13.0342 N   0  0  0  0  0  0  0  0  0  0  0  0
  -10.7814  -22.4114   12.4013 C   0  0  0  0  0  0  0  0  0  0  0  0
  -10.2640  -22.2918   11.1953 N   0  0  0  0  0  0  0  0  0  0  0  0
  -10.0274  -20.9476   11.0424 C   0  0  0  0  0  0  0  0  0  0  0  0
  -10.4203  -20.2487   12.1733 C   0  0  0  0  0  0  0  0  0  0  0  0
  -10.3338  -18.9216   12.3641 N   0  0  0  0  0  0  0  0  0  0  0  0
   -9.8057  -18.2730   11.3024 C   0  0  0  0  0  0  0  0  0  0  0  0
   -9.3808  -18.8370   10.1545 N   0  0  0  0  0  0  0  0  0  0  0  0
   -9.4895  -20.1691   10.0244 C   0  0  0  0  0  0  0  0  0  0  0  0
   -9.0330  -20.6622    8.8349 O   0  0  0  0  0  0  0  0  0  0  0  0
   -9.7222  -16.8901   11.4793 N   0  0  0  0  0  0  0  0  0  0  0  0
   -8.5796  -16.1798   11.7761 C   0  0  0  0  0  0  0  0  0  0  0  0
   -7.4445  -16.6221   11.9131 O   0  0  0  0  0  0  0  0  0  0  0  0
   -8.8524  -14.7024   11.8973 C   0  0  0  0  0  0  0  0  0  0  0  0
  1  2  1  0
  2  3  1  0
  3  4  1  0
  4  5  2  0
  4  6  1  0
  6  7  1  0
  7  8  1  0
  7 17  1  0
  8  9  1  0
  8 14  1  0
  9 10  1  0
  9 16  1  0
 10 11  1  0
 11 12  1  0
 12 13  2  0
 12 14  1  0
 12 15  1  0
 16 17  1  0
 17 18  1  0
 18 19  1  0
 18 22  1  0
 19 20  2  0
 20 21  1  0
 21 22  2  0
 21 26  1  0
 22 23  1  0
 23 24  2  0
 24 25  1  0
 24 28  1  0
 25 26  2  0
 26 27  1  0
 28 29  1  0
 29 30  2  0
 29 31  1  0
M  END
>  <Gold.Gold.Protein.RotatedWaterAtoms>  (538) 


>  <Gold.Id.Protein>  (538) 


>  <Gold.PLP.Chemscore.CHOScore>  (538) 
0.0000

>  <Gold.PLP.Chemscore.Hbond>  (538) 
1.2080

>  <Gold.PLP.Chemscore.Internal.Correction>  (538) 
0.1232

>  <Gold.PLP.Chemscore.Metal>  (538) 
0.0000

>  <Gold.PLP.Fitness>  (538) 
47.7145

>  <Gold.PLP.PLP>  (538) 
-46.0218

>  <Gold.PLP.ligand.clash>  (538) 
0.0000

>  <Gold.PLP.ligand.torsion>  (538) 
1.0272

>  <Gold.PLP.part.buried>  (538) 
-2.2958

>  <Gold.PLP.part.hbond>  (538) 
-4.0214

>  <Gold.PLP.part.metal>  (538) 
0.0000

>  <Gold.PLP.part.nonpolar>  (538) 
-41.4699

>  <Gold.PLP.part.repulsive>  (538) 
0.9524

>  <Gold.Protein.RotatedAtoms>  (538) 


>  <Gold.Protein.RotatedTorsions>  (538) 


>  <Gold.Protein.RotatedWaterAtoms>  (538) 


>  <Gold.Version>  (538) 
5.3.0

>  <PLP.Chemscore.CHOScore>  (538) 


>  <PLP.Chemscore.Hbond>  (538) 


>  <PLP.Chemscore.Internal.Correction>  (538) 


>  <PLP.Chemscore.Metal>  (538) 


>  <PLP.Fitness>  (538) 


>  <PLP.PLP>  (538) 


>  <PLP.ligand.clash>  (538) 


>  <PLP.ligand.torsion>  (538) 


>  <PLP.part.buried>  (538) 


>  <PLP.part.hbond>  (538) 


>  <PLP.part.metal>  (538) 


>  <PLP.part.nonpolar>  (538) 


>  <PLP.part.repulsive>  (538) 


>  <RMSD>  (538) 
0.291955871297

>  <Torsion>  (538) 
171.923704933

>  <TorsionO>  (538) 
6.03609353985

>  <TorsionR>  (538) 
177.959798473

>  <Version>  (538) 


>  <product>  (538) 
45|Compound_21|Compounds_3D_F|sdf|8|dock8|1

>  <rmsd>  (538) 
-1

$$$$
193|32168_281|Aromatic_primary_amines_F|sdf|39|dock6|1
     RDKit          3D

 23 25  0  0  0  0  0  0  0  0999 V2000
   -7.8439  -12.1461   11.8919 C   0  0  0  0  0  0  0  0  0  0  0  0
   -8.5691  -13.4472   11.6781 C   0  0  0  0  0  0  0  0  0  0  0  0
   -9.7886  -13.4981   11.5208 O   0  0  0  0  0  0  0  0  0  0  0  0
   -7.7264  -14.5390   11.7020 N   0  0  0  0  0  0  0  0  0  0  0  0
   -8.1889  -15.8197   11.5323 C   0  0  0  0  0  0  0  0  0  0  0  0
   -9.4747  -16.2039   11.8163 N   0  0  0  0  0  0  0  0  0  0  0  0
   -9.5964  -17.5375   11.5379 C   0  0  0  0  0  0  0  0  0  0  0  0
  -10.6643  -18.4283   11.6415 C   0  0  0  0  0  0  0  0  0  0  0  0
  -10.4051  -19.7586   11.2778 C   0  0  0  0  0  0  0  0  0  0  0  0
   -9.1530  -20.1507   10.7795 C   0  0  0  0  0  0  0  0  0  0  0  0
   -8.1017  -19.2294   10.6839 C   0  0  0  0  0  0  0  0  0  0  0  0
   -8.3349  -17.9032   11.0783 C   0  0  0  0  0  0  0  0  0  0  0  0
   -7.4773  -16.8281   11.0838 N   0  0  0  0  0  0  0  0  0  0  0  0
   -8.8530  -21.7658   10.2429 Cl  0  0  0  0  0  0  0  0  0  0  0  0
  -11.4669  -20.6323   11.3734 O   0  0  0  0  0  0  0  0  0  0  0  0
  -12.5262  -20.4408   10.5053 C   0  0  0  0  0  0  0  0  0  0  0  0
  -13.3188  -19.2846   10.5304 C   0  0  0  0  0  0  0  0  0  0  0  0
  -14.3665  -19.1344    9.6224 C   0  0  0  0  0  0  0  0  0  0  0  0
  -14.6219  -20.1279    8.6796 C   0  0  0  0  0  0  0  0  0  0  0  0
  -13.8238  -21.2756    8.6345 C   0  0  0  0  0  0  0  0  0  0  0  0
  -12.7674  -21.4342    9.5416 C   0  0  0  0  0  0  0  0  0  0  0  0
  -11.7588  -22.8458    9.4996 Cl  0  0  0  0  0  0  0  0  0  0  0  0
  -14.1988  -22.4584    7.4296 Cl  0  0  0  0  0  0  0  0  0  0  0  0
  1  2  1  0
  2  3  2  0
  2  4  1  0
  4  5  1  0
  5  6  1  0
  5 13  2  0
  6  7  1  0
  7  8  2  0
  7 12  1  0
  8  9  1  0
  9 10  2  0
  9 15  1  0
 10 11  1  0
 10 14  1  0
 11 12  2  0
 12 13  1  0
 15 16  1  0
 16 17  2  0
 16 21  1  0
 17 18  1  0
 18 19  2  0
 19 20  1  0
 20 21  2  0
 20 23  1  0
 21 22  1  0
M  END
>  <Gold.Gold.Protein.RotatedWaterAtoms>  (539) 


>  <Gold.Id.Protein>  (539) 


>  <Gold.PLP.Chemscore.CHOScore>  (539) 
0.0000

>  <Gold.PLP.Chemscore.Hbond>  (539) 
1.0000

>  <Gold.PLP.Chemscore.Internal.Correction>  (539) 
0.0086

>  <Gold.PLP.Chemscore.Metal>  (539) 
0.0000

>  <Gold.PLP.Fitness>  (539) 
50.7139

>  <Gold.PLP.PLP>  (539) 
-48.1706

>  <Gold.PLP.ligand.clash>  (539) 
0.0000

>  <Gold.PLP.ligand.torsion>  (539) 
0.2327

>  <Gold.PLP.part.buried>  (539) 
-6.5205

>  <Gold.PLP.part.hbond>  (539) 
-2.0000

>  <Gold.PLP.part.metal>  (539) 
0.0000

>  <Gold.PLP.part.nonpolar>  (539) 
-39.3857

>  <Gold.PLP.part.repulsive>  (539) 
0.3298

>  <Gold.Protein.RotatedAtoms>  (539) 


>  <Gold.Protein.RotatedTorsions>  (539) 


>  <Gold.Protein.RotatedWaterAtoms>  (539) 


>  <Gold.Version>  (539) 
5.3.0

>  <PLP.Chemscore.CHOScore>  (539) 


>  <PLP.Chemscore.Hbond>  (539) 


>  <PLP.Chemscore.Internal.Correction>  (539) 


>  <PLP.Chemscore.Metal>  (539) 


>  <PLP.Fitness>  (539) 


>  <PLP.PLP>  (539) 


>  <PLP.ligand.clash>  (539) 


>  <PLP.ligand.torsion>  (539) 


>  <PLP.part.buried>  (539) 


>  <PLP.part.hbond>  (539) 


>  <PLP.part.metal>  (539) 


>  <PLP.part.nonpolar>  (539) 


>  <PLP.part.repulsive>  (539) 


>  <RMSD>  (539) 
0.439733510035

>  <Torsion>  (539) 
177.672185574

>  <TorsionO>  (539) 
4.31728583372

>  <TorsionR>  (539) 
173.35489974

>  <Version>  (539) 


>  <product>  (539) 
45|Compound_21|Compounds_3D_F|sdf|8|dock8|1

>  <rmsd>  (539) 
-1

$$$$
76|Compound_31|Compounds_3D_F|sdf|13|dock2|1
     RDKit          3D

 10  9  0  0  0  0  0  0  0  0999 V2000
   -8.1011  -13.7161   12.7962 O   0  0  0  0  0  0  0  0  0  0  0  0
   -6.9790  -13.0792   12.4288 C   0  0  0  0  0  0  0  0  0  0  0  0
   -7.0461  -12.0512   11.7962 O   0  0  0  0  0  0  0  0  0  0  0  0
   -5.6336  -13.6454   12.8039 C   0  0  0  0  0  0  0  0  0  0  0  0
   -4.6008  -12.8271   12.2519 O   0  0  0  0  0  0  0  0  0  0  0  0
   -5.5070  -15.0672   12.2527 C   0  0  0  0  0  0  0  0  0  0  0  0
   -5.6221  -15.0367   10.7920 N   0  0  0  0  0  0  0  0  0  0  0  0
   -6.7225  -15.5317   10.1919 C   0  0  0  0  0  0  0  0  0  0  0  0
   -7.6172  -16.0026   10.8614 O   0  0  0  0  0  0  0  0  0  0  0  0
   -6.8457  -15.4982    8.6275 B   0  0  0  0  0  0  0  0  0  0  0  0
  1  2  1  0
  2  3  2  0
  2  4  1  0
  4  5  1  0
  4  6  1  0
  6  7  1  0
  7  8  1  0
  8  9  2  0
  8 10  1  0
M  END
>  <Gold.Gold.Protein.RotatedWaterAtoms>  (540) 


>  <Gold.Id.Protein>  (540) 


>  <Gold.PLP.Chemscore.CHOScore>  (540) 
0.0000

>  <Gold.PLP.Chemscore.Hbond>  (540) 
2.0000

>  <Gold.PLP.Chemscore.Internal.Correction>  (540) 
0.0020

>  <Gold.PLP.Chemscore.Metal>  (540) 
0.0000

>  <Gold.PLP.Fitness>  (540) 
30.3635

>  <Gold.PLP.PLP>  (540) 
-24.4952

>  <Gold.PLP.ligand.clash>  (540) 
0.0000

>  <Gold.PLP.ligand.torsion>  (540) 
0.0668

>  <Gold.PLP.part.buried>  (540) 
-4.7662

>  <Gold.PLP.part.hbond>  (540) 
-3.3515

>  <Gold.PLP.part.metal>  (540) 
0.0000

>  <Gold.PLP.part.nonpolar>  (540) 
-15.9012

>  <Gold.PLP.part.repulsive>  (540) 
0.2451

>  <Gold.Protein.RotatedAtoms>  (540) 


>  <Gold.Protein.RotatedTorsions>  (540) 


>  <Gold.Protein.RotatedWaterAtoms>  (540) 


>  <Gold.Version>  (540) 
5.3.0

>  <PLP.Chemscore.CHOScore>  (540) 


>  <PLP.Chemscore.Hbond>  (540) 


>  <PLP.Chemscore.Internal.Correction>  (540) 


>  <PLP.Chemscore.Metal>  (540) 


>  <PLP.Fitness>  (540) 


>  <PLP.PLP>  (540) 


>  <PLP.ligand.clash>  (540) 


>  <PLP.ligand.torsion>  (540) 


>  <PLP.part.buried>  (540) 


>  <PLP.part.hbond>  (540) 


>  <PLP.part.metal>  (540) 


>  <PLP.part.nonpolar>  (540) 


>  <PLP.part.repulsive>  (540) 


>  <Version>  (540) 


$$$$
94|664022_40|Aromatic_carboxylic_acids_F|sdf|24|dock1|1
     RDKit          3D

 12 12  0  0  0  0  0  0  0  0999 V2000
   -8.2596  -17.1212   11.4595 C   0  0  0  0  0  0  0  0  0  0  0  0
   -7.6366  -15.8367   11.6688 N   0  0  0  0  0  0  0  0  0  0  0  0
   -8.3409  -14.6553   11.5719 C   0  0  0  0  0  0  0  0  0  0  0  0
   -9.5296  -14.5547   11.2978 O   0  0  0  0  0  0  0  0  0  0  0  0
   -7.5420  -13.4431   11.8503 C   0  0  0  0  0  0  0  0  0  0  0  0
   -8.1627  -12.1983   11.6738 C   0  0  0  0  0  0  0  0  0  0  0  0
   -7.4390  -11.0301   11.9055 C   0  0  0  0  0  0  0  0  0  0  0  0
   -6.1069  -11.0910   12.3103 C   0  0  0  0  0  0  0  0  0  0  0  0
   -5.4897  -12.3324   12.4853 C   0  0  0  0  0  0  0  0  0  0  0  0
   -6.2035  -13.5136   12.2549 C   0  0  0  0  0  0  0  0  0  0  0  0
   -5.3062  -15.1564   12.5638 Br  0  0  0  0  0  0  0  0  0  0  0  0
   -8.1960   -9.5005   11.6887 Cl  0  0  0  0  0  0  0  0  0  0  0  0
  1  2  1  0
  2  3  1  0
  3  4  2  0
  3  5  1  0
  5  6  2  0
  5 10  1  0
  6  7  1  0
  7  8  2  0
  7 12  1  0
  8  9  1  0
  9 10  2  0
 10 11  1  0
M  END
>  <Gold.Gold.Protein.RotatedWaterAtoms>  (541) 


>  <Gold.Id.Protein>  (541) 


>  <Gold.PLP.Chemscore.CHOScore>  (541) 
0.0000

>  <Gold.PLP.Chemscore.Hbond>  (541) 
0.4160

>  <Gold.PLP.Chemscore.Internal.Correction>  (541) 
0.0004

>  <Gold.PLP.Chemscore.Metal>  (541) 
0.0000

>  <Gold.PLP.Fitness>  (541) 
48.9046

>  <Gold.PLP.PLP>  (541) 
-47.6744

>  <Gold.PLP.ligand.clash>  (541) 
0.0000

>  <Gold.PLP.ligand.torsion>  (541) 
0.0091

>  <Gold.PLP.part.buried>  (541) 
-7.3578

>  <Gold.PLP.part.hbond>  (541) 
-0.5127

>  <Gold.PLP.part.metal>  (541) 
0.0000

>  <Gold.PLP.part.nonpolar>  (541) 
-40.3098

>  <Gold.PLP.part.repulsive>  (541) 
0.1684

>  <Gold.Protein.RotatedAtoms>  (541) 


>  <Gold.Protein.RotatedTorsions>  (541) 


>  <Gold.Protein.RotatedWaterAtoms>  (541) 


>  <Gold.Version>  (541) 
5.3.0

>  <PLP.Chemscore.CHOScore>  (541) 


>  <PLP.Chemscore.Hbond>  (541) 


>  <PLP.Chemscore.Internal.Correction>  (541) 


>  <PLP.Chemscore.Metal>  (541) 


>  <PLP.Fitness>  (541) 


>  <PLP.PLP>  (541) 


>  <PLP.ligand.clash>  (541) 


>  <PLP.ligand.torsion>  (541) 


>  <PLP.part.buried>  (541) 


>  <PLP.part.hbond>  (541) 


>  <PLP.part.metal>  (541) 


>  <PLP.part.nonpolar>  (541) 


>  <PLP.part.repulsive>  (541) 


>  <RMSD>  (541) 
0.30972197429

>  <Torsion>  (541) 
172.929186758

>  <TorsionO>  (541) 
24.4968065243

>  <TorsionR>  (541) 
162.574006718

>  <Version>  (541) 


>  <product>  (541) 
76|Compound_31|Compounds_3D_F|sdf|13|dock2|1

>  <rmsd>  (541) 
-1

$$$$
110|565385_49|Aromatic_carboxylic_acids_F|sdf|29|dock1|1
     RDKit          3D

 13 13  0  0  0  0  0  0  0  0999 V2000
  -10.1118  -17.9021   11.6320 C   0  0  0  0  0  0  0  0  0  0  0  0
   -9.7537  -16.5043   11.6546 N   0  0  0  0  0  0  0  0  0  0  0  0
   -8.4330  -16.1187   11.7930 C   0  0  0  0  0  0  0  0  0  0  0  0
   -7.5159  -16.9298   11.9008 O   0  0  0  0  0  0  0  0  0  0  0  0
   -8.1234  -14.6552   11.8105 C   0  0  0  0  0  0  0  0  0  0  0  0
   -9.0636  -13.6551   11.5375 C   0  0  0  0  0  0  0  0  0  0  0  0
   -8.6966  -12.3009   11.5726 C   0  0  0  0  0  0  0  0  0  0  0  0
   -7.3879  -11.9195   11.8809 C   0  0  0  0  0  0  0  0  0  0  0  0
   -6.4486  -12.9235   12.1551 C   0  0  0  0  0  0  0  0  0  0  0  0
   -6.8098  -14.2750   12.1207 C   0  0  0  0  0  0  0  0  0  0  0  0
   -4.6444  -12.5025   12.5849 Br  0  0  0  0  0  0  0  0  0  0  0  0
   -6.9476  -10.6242   11.9372 O   0  0  0  0  0  0  0  0  0  0  0  0
   -7.9020   -9.5910   11.7256 C   0  0  0  0  0  0  0  0  0  0  0  0
  1  2  1  0
  2  3  1  0
  3  4  2  0
  3  5  1  0
  5  6  2  0
  5 10  1  0
  6  7  1  0
  7  8  2  0
  8  9  1  0
  8 12  1  0
  9 10  2  0
  9 11  1  0
 12 13  1  0
M  END
>  <Gold.Gold.Protein.RotatedWaterAtoms>  (542) 


>  <Gold.Id.Protein>  (542) 


>  <Gold.PLP.Chemscore.CHOScore>  (542) 
0.0000

>  <Gold.PLP.Chemscore.Hbond>  (542) 
1.0000

>  <Gold.PLP.Chemscore.Internal.Correction>  (542) 
0.0000

>  <Gold.PLP.Chemscore.Metal>  (542) 
0.0000

>  <Gold.PLP.Fitness>  (542) 
43.9775

>  <Gold.PLP.PLP>  (542) 
-41.0517

>  <Gold.PLP.ligand.clash>  (542) 
0.0000

>  <Gold.PLP.ligand.torsion>  (542) 
0.0371

>  <Gold.PLP.part.buried>  (542) 
-3.7367

>  <Gold.PLP.part.hbond>  (542) 
-1.0000

>  <Gold.PLP.part.metal>  (542) 
0.0000

>  <Gold.PLP.part.nonpolar>  (542) 
-36.7483

>  <Gold.PLP.part.repulsive>  (542) 
0.4054

>  <Gold.Protein.RotatedAtoms>  (542) 


>  <Gold.Protein.RotatedTorsions>  (542) 


>  <Gold.Protein.RotatedWaterAtoms>  (542) 


>  <Gold.Version>  (542) 
5.3.0

>  <PLP.Chemscore.CHOScore>  (542) 


>  <PLP.Chemscore.Hbond>  (542) 


>  <PLP.Chemscore.Internal.Correction>  (542) 


>  <PLP.Chemscore.Metal>  (542) 


>  <PLP.Fitness>  (542) 


>  <PLP.PLP>  (542) 


>  <PLP.ligand.clash>  (542) 


>  <PLP.ligand.torsion>  (542) 


>  <PLP.part.buried>  (542) 


>  <PLP.part.hbond>  (542) 


>  <PLP.part.metal>  (542) 


>  <PLP.part.nonpolar>  (542) 


>  <PLP.part.repulsive>  (542) 


>  <RMSD>  (542) 
0.319376411377

>  <Torsion>  (542) 
169.460450784

>  <TorsionO>  (542) 
9.7963905484

>  <TorsionR>  (542) 
179.256841332

>  <Version>  (542) 


>  <product>  (542) 
76|Compound_31|Compounds_3D_F|sdf|13|dock2|1

>  <rmsd>  (542) 
-1

$$$$
128|137677_56|Aromatic_carboxylic_acids_F|sdf|33|dock1|1
     RDKit          3D

 11 11  0  0  0  0  0  0  0  0999 V2000
   -8.6116  -16.1544   11.8887 C   0  0  0  0  0  0  0  0  0  0  0  0
   -7.9978  -14.8484   11.9215 N   0  0  0  0  0  0  0  0  0  0  0  0
   -8.7778  -13.7008   11.8756 C   0  0  0  0  0  0  0  0  0  0  0  0
  -10.0002  -13.7896   11.8139 O   0  0  0  0  0  0  0  0  0  0  0  0
   -8.0808  -12.3609   11.9017 C   0  0  0  0  0  0  0  0  0  0  0  0
   -8.7916  -11.1851   11.5813 C   0  0  0  0  0  0  0  0  0  0  0  0
   -8.1781   -9.9267   11.5989 C   0  0  0  0  0  0  0  0  0  0  0  0
   -6.8391   -9.8089   11.9369 C   0  0  0  0  0  0  0  0  0  0  0  0
   -6.1124  -10.9502   12.2575 C   0  0  0  0  0  0  0  0  0  0  0  0
   -6.7171  -12.2196   12.2428 C   0  0  0  0  0  0  0  0  0  0  0  0
   -5.5419  -13.6455   12.7121 Br  0  0  0  0  0  0  0  0  0  0  0  0
  1  2  1  0
  2  3  1  0
  3  4  2  0
  3  5  1  0
  5  6  2  0
  5 10  1  0
  6  7  1  0
  7  8  2  0
  8  9  1  0
  9 10  2  0
 10 11  1  0
M  END
>  <Gold.Gold.Protein.RotatedWaterAtoms>  (543) 


>  <Gold.Id.Protein>  (543) 


>  <Gold.PLP.Chemscore.CHOScore>  (543) 
0.0000

>  <Gold.PLP.Chemscore.Hbond>  (543) 
1.0000

>  <Gold.PLP.Chemscore.Internal.Correction>  (543) 
0.0000

>  <Gold.PLP.Chemscore.Metal>  (543) 
0.0000

>  <Gold.PLP.Fitness>  (543) 
45.2899

>  <Gold.PLP.PLP>  (543) 
-42.4444

>  <Gold.PLP.ligand.clash>  (543) 
0.0000

>  <Gold.PLP.ligand.torsion>  (543) 
0.0772

>  <Gold.PLP.part.buried>  (543) 
-6.4690

>  <Gold.PLP.part.hbond>  (543) 
-0.6863

>  <Gold.PLP.part.metal>  (543) 
0.0000

>  <Gold.PLP.part.nonpolar>  (543) 
-34.8280

>  <Gold.PLP.part.repulsive>  (543) 
0.1963

>  <Gold.Protein.RotatedAtoms>  (543) 


>  <Gold.Protein.RotatedTorsions>  (543) 


>  <Gold.Protein.RotatedWaterAtoms>  (543) 


>  <Gold.Version>  (543) 
5.3.0

>  <PLP.Chemscore.CHOScore>  (543) 


>  <PLP.Chemscore.Hbond>  (543) 


>  <PLP.Chemscore.Internal.Correction>  (543) 


>  <PLP.Chemscore.Metal>  (543) 


>  <PLP.Fitness>  (543) 


>  <PLP.PLP>  (543) 


>  <PLP.ligand.clash>  (543) 


>  <PLP.ligand.torsion>  (543) 


>  <PLP.part.buried>  (543) 


>  <PLP.part.hbond>  (543) 


>  <PLP.part.metal>  (543) 


>  <PLP.part.nonpolar>  (543) 


>  <PLP.part.repulsive>  (543) 


>  <RMSD>  (543) 
0.428070490903

>  <Torsion>  (543) 
152.444048788

>  <TorsionO>  (543) 
39.0580871276

>  <TorsionR>  (543) 
168.497864085

>  <Version>  (543) 


>  <product>  (543) 
76|Compound_31|Compounds_3D_F|sdf|13|dock2|1

>  <rmsd>  (543) 
-1

$$$$
974|750794_1404|Aromatic_primary_amines_F|sdf|194|dock3|1
     RDKit          3D

 14 14  0  0  0  0  0  0  0  0999 V2000
  -13.6355  -18.1936    9.4145 C   0  0  0  0  0  0  0  0  0  0  0  0
  -13.2544  -19.4497   10.1732 C   0  0  0  0  0  0  0  0  0  0  0  0
  -11.8731  -19.3506   10.5383 O   0  0  0  0  0  0  0  0  0  0  0  0
  -11.6148  -18.5085   11.5823 C   0  0  0  0  0  0  0  0  0  0  0  0
  -12.3947  -18.2810   12.5004 O   0  0  0  0  0  0  0  0  0  0  0  0
  -10.3031  -17.8985   11.4902 C   0  0  0  0  0  0  0  0  0  0  0  0
   -9.1673  -18.4974   10.9931 C   0  0  0  0  0  0  0  0  0  0  0  0
   -8.1448  -17.6055   11.0758 O   0  0  0  0  0  0  0  0  0  0  0  0
   -8.7110  -16.4917   11.6237 C   0  0  0  0  0  0  0  0  0  0  0  0
   -9.9933  -16.6110   11.8915 N   0  0  0  0  0  0  0  0  0  0  0  0
   -7.9611  -15.3718   11.8549 N   0  0  0  0  0  0  0  0  0  0  0  0
   -8.5046  -14.1249   12.0676 C   0  0  0  0  0  0  0  0  0  0  0  0
   -9.6950  -13.8313   12.1035 O   0  0  0  0  0  0  0  0  0  0  0  0
   -7.4448  -13.0785   12.3021 C   0  0  0  0  0  0  0  0  0  0  0  0
  1  2  1  0
  2  3  1  0
  3  4  1  0
  4  5  2  0
  4  6  1  0
  6  7  2  0
  6 10  1  0
  7  8  1  0
  8  9  1  0
  9 10  2  0
  9 11  1  0
 11 12  1  0
 12 13  2  0
 12 14  1  0
M  END
>  <Gold.Gold.Protein.RotatedWaterAtoms>  (544) 


>  <Gold.Id.Protein>  (544) 


>  <Gold.PLP.Chemscore.CHOScore>  (544) 
0.0000

>  <Gold.PLP.Chemscore.Hbond>  (544) 
2.0000

>  <Gold.PLP.Chemscore.Internal.Correction>  (544) 
0.0053

>  <Gold.PLP.Chemscore.Metal>  (544) 
0.0000

>  <Gold.PLP.Fitness>  (544) 
36.8047

>  <Gold.PLP.PLP>  (544) 
-32.7996

>  <Gold.PLP.ligand.clash>  (544) 
0.0000

>  <Gold.PLP.ligand.torsion>  (544) 
1.0001

>  <Gold.PLP.part.buried>  (544) 
-6.5206

>  <Gold.PLP.part.hbond>  (544) 
-2.9156

>  <Gold.PLP.part.metal>  (544) 
0.0000

>  <Gold.PLP.part.nonpolar>  (544) 
-23.4080

>  <Gold.PLP.part.repulsive>  (544) 
0.3100

>  <Gold.Protein.RotatedAtoms>  (544) 


>  <Gold.Protein.RotatedTorsions>  (544) 


>  <Gold.Protein.RotatedWaterAtoms>  (544) 


>  <Gold.Version>  (544) 
5.3.0

>  <PLP.Chemscore.CHOScore>  (544) 


>  <PLP.Chemscore.Hbond>  (544) 


>  <PLP.Chemscore.Internal.Correction>  (544) 


>  <PLP.Chemscore.Metal>  (544) 


>  <PLP.Fitness>  (544) 


>  <PLP.PLP>  (544) 


>  <PLP.ligand.clash>  (544) 


>  <PLP.ligand.torsion>  (544) 


>  <PLP.part.buried>  (544) 


>  <PLP.part.hbond>  (544) 


>  <PLP.part.metal>  (544) 


>  <PLP.part.nonpolar>  (544) 


>  <PLP.part.repulsive>  (544) 


>  <RMSD>  (544) 
0.499949349045

>  <Torsion>  (544) 
159.973716791

>  <TorsionO>  (544) 
19.1052109979

>  <TorsionR>  (544) 
179.078927789

>  <Version>  (544) 


>  <product>  (544) 
76|Compound_31|Compounds_3D_F|sdf|13|dock2|1

>  <rmsd>  (544) 
-1

$$$$
1884|M3006_1781|Aromatic_primary_amines_F|sdf|361|dock3|1
     RDKit          3D

 31 34  0  0  0  0  0  0  0  0999 V2000
  -14.4210  -19.8971    8.7934 C   0  0  0  0  0  0  0  0  0  0  0  0
  -13.9762  -19.4927   10.1894 C   0  0  0  0  0  0  0  0  0  0  0  0
  -14.1356  -20.6409   11.1817 C   0  0  0  0  0  0  0  0  0  0  0  0
  -13.5197  -20.3070   12.5189 C   0  0  0  0  0  0  0  0  0  0  0  0
  -12.9307  -19.2724   12.7954 O   0  0  0  0  0  0  0  0  0  0  0  0
  -13.7110  -21.3451   13.3845 O   0  0  0  0  0  0  0  0  0  0  0  0
  -12.9425  -21.2698   14.5900 C   0  0  0  0  0  0  0  0  0  0  0  0
  -12.8849  -22.6189   15.2889 C   0  0  0  0  0  0  0  0  0  0  0  0
  -11.6552  -22.4172   16.1494 C   0  0  0  0  0  0  0  0  0  0  0  0
  -11.2420  -23.7410   16.7624 C   0  0  0  0  0  0  0  0  0  0  0  0
  -12.3024  -24.2223   17.5862 O   0  0  0  0  0  0  0  0  0  0  0  0
  -13.7888  -24.3384   16.9603 P   0  0  0  0  0  0  0  0  0  0  0  0
  -14.8775  -24.6795   17.9243 O   0  0  0  0  0  0  0  0  0  0  0  0
  -13.9839  -22.9641   16.1174 O   0  0  0  0  0  0  0  0  0  0  0  0
  -13.5991  -25.4435   15.8075 O   0  0  0  0  0  0  0  0  0  0  0  0
  -10.6922  -21.8161   15.2889 O   0  0  0  0  0  0  0  0  0  0  0  0
  -11.4338  -20.9664   14.3653 C   0  0  0  0  0  0  0  0  0  0  0  0
  -10.9052  -21.2017   13.0342 N   0  0  0  0  0  0  0  0  0  0  0  0
  -10.7814  -22.4114   12.4013 C   0  0  0  0  0  0  0  0  0  0  0  0
  -10.2640  -22.2918   11.1953 N   0  0  0  0  0  0  0  0  0  0  0  0
  -10.0274  -20.9476   11.0424 C   0  0  0  0  0  0  0  0  0  0  0  0
  -10.4203  -20.2487   12.1733 C   0  0  0  0  0  0  0  0  0  0  0  0
  -10.3338  -18.9216   12.3641 N   0  0  0  0  0  0  0  0  0  0  0  0
   -9.8057  -18.2730   11.3024 C   0  0  0  0  0  0  0  0  0  0  0  0
   -9.3808  -18.8370   10.1545 N   0  0  0  0  0  0  0  0  0  0  0  0
   -9.4895  -20.1691   10.0244 C   0  0  0  0  0  0  0  0  0  0  0  0
   -9.0330  -20.6622    8.8349 O   0  0  0  0  0  0  0  0  0  0  0  0
   -9.7222  -16.8901   11.4793 N   0  0  0  0  0  0  0  0  0  0  0  0
   -8.5796  -16.1798   11.7761 C   0  0  0  0  0  0  0  0  0  0  0  0
   -7.4445  -16.6221   11.9131 O   0  0  0  0  0  0  0  0  0  0  0  0
   -8.8524  -14.7024   11.8973 C   0  0  0  0  0  0  0  0  0  0  0  0
  1  2  1  0
  2  3  1  0
  3  4  1  0
  4  5  2  0
  4  6  1  0
  6  7  1  0
  7  8  1  0
  7 17  1  0
  8  9  1  0
  8 14  1  0
  9 10  1  0
  9 16  1  0
 10 11  1  0
 11 12  1  0
 12 13  2  0
 12 14  1  0
 12 15  1  0
 16 17  1  0
 17 18  1  0
 18 19  1  0
 18 22  1  0
 19 20  2  0
 20 21  1  0
 21 22  2  0
 21 26  1  0
 22 23  1  0
 23 24  2  0
 24 25  1  0
 24 28  1  0
 25 26  2  0
 26 27  1  0
 28 29  1  0
 29 30  2  0
 29 31  1  0
M  END
>  <Gold.Gold.Protein.RotatedWaterAtoms>  (545) 


>  <Gold.Id.Protein>  (545) 


>  <Gold.PLP.Chemscore.CHOScore>  (545) 
0.0000

>  <Gold.PLP.Chemscore.Hbond>  (545) 
1.2080

>  <Gold.PLP.Chemscore.Internal.Correction>  (545) 
0.1232

>  <Gold.PLP.Chemscore.Metal>  (545) 
0.0000

>  <Gold.PLP.Fitness>  (545) 
47.7145

>  <Gold.PLP.PLP>  (545) 
-46.0218

>  <Gold.PLP.ligand.clash>  (545) 
0.0000

>  <Gold.PLP.ligand.torsion>  (545) 
1.0272

>  <Gold.PLP.part.buried>  (545) 
-2.2958

>  <Gold.PLP.part.hbond>  (545) 
-4.0214

>  <Gold.PLP.part.metal>  (545) 
0.0000

>  <Gold.PLP.part.nonpolar>  (545) 
-41.4699

>  <Gold.PLP.part.repulsive>  (545) 
0.9524

>  <Gold.Protein.RotatedAtoms>  (545) 


>  <Gold.Protein.RotatedTorsions>  (545) 


>  <Gold.Protein.RotatedWaterAtoms>  (545) 


>  <Gold.Version>  (545) 
5.3.0

>  <PLP.Chemscore.CHOScore>  (545) 


>  <PLP.Chemscore.Hbond>  (545) 


>  <PLP.Chemscore.Internal.Correction>  (545) 


>  <PLP.Chemscore.Metal>  (545) 


>  <PLP.Fitness>  (545) 


>  <PLP.PLP>  (545) 


>  <PLP.ligand.clash>  (545) 


>  <PLP.ligand.torsion>  (545) 


>  <PLP.part.buried>  (545) 


>  <PLP.part.hbond>  (545) 


>  <PLP.part.metal>  (545) 


>  <PLP.part.nonpolar>  (545) 


>  <PLP.part.repulsive>  (545) 


>  <RMSD>  (545) 
0.291955871297

>  <Torsion>  (545) 
171.923704933

>  <TorsionO>  (545) 
6.03609353985

>  <TorsionR>  (545) 
177.959798473

>  <Version>  (545) 


>  <product>  (545) 
76|Compound_31|Compounds_3D_F|sdf|13|dock2|1

>  <rmsd>  (545) 
-1

$$$$
193|32168_281|Aromatic_primary_amines_F|sdf|39|dock6|1
     RDKit          3D

 23 25  0  0  0  0  0  0  0  0999 V2000
   -7.8439  -12.1461   11.8919 C   0  0  0  0  0  0  0  0  0  0  0  0
   -8.5691  -13.4472   11.6781 C   0  0  0  0  0  0  0  0  0  0  0  0
   -9.7886  -13.4981   11.5208 O   0  0  0  0  0  0  0  0  0  0  0  0
   -7.7264  -14.5390   11.7020 N   0  0  0  0  0  0  0  0  0  0  0  0
   -8.1889  -15.8197   11.5323 C   0  0  0  0  0  0  0  0  0  0  0  0
   -9.4747  -16.2039   11.8163 N   0  0  0  0  0  0  0  0  0  0  0  0
   -9.5964  -17.5375   11.5379 C   0  0  0  0  0  0  0  0  0  0  0  0
  -10.6643  -18.4283   11.6415 C   0  0  0  0  0  0  0  0  0  0  0  0
  -10.4051  -19.7586   11.2778 C   0  0  0  0  0  0  0  0  0  0  0  0
   -9.1530  -20.1507   10.7795 C   0  0  0  0  0  0  0  0  0  0  0  0
   -8.1017  -19.2294   10.6839 C   0  0  0  0  0  0  0  0  0  0  0  0
   -8.3349  -17.9032   11.0783 C   0  0  0  0  0  0  0  0  0  0  0  0
   -7.4773  -16.8281   11.0838 N   0  0  0  0  0  0  0  0  0  0  0  0
   -8.8530  -21.7658   10.2429 Cl  0  0  0  0  0  0  0  0  0  0  0  0
  -11.4669  -20.6323   11.3734 O   0  0  0  0  0  0  0  0  0  0  0  0
  -12.5262  -20.4408   10.5053 C   0  0  0  0  0  0  0  0  0  0  0  0
  -13.3188  -19.2846   10.5304 C   0  0  0  0  0  0  0  0  0  0  0  0
  -14.3665  -19.1344    9.6224 C   0  0  0  0  0  0  0  0  0  0  0  0
  -14.6219  -20.1279    8.6796 C   0  0  0  0  0  0  0  0  0  0  0  0
  -13.8238  -21.2756    8.6345 C   0  0  0  0  0  0  0  0  0  0  0  0
  -12.7674  -21.4342    9.5416 C   0  0  0  0  0  0  0  0  0  0  0  0
  -11.7588  -22.8458    9.4996 Cl  0  0  0  0  0  0  0  0  0  0  0  0
  -14.1988  -22.4584    7.4296 Cl  0  0  0  0  0  0  0  0  0  0  0  0
  1  2  1  0
  2  3  2  0
  2  4  1  0
  4  5  1  0
  5  6  1  0
  5 13  2  0
  6  7  1  0
  7  8  2  0
  7 12  1  0
  8  9  1  0
  9 10  2  0
  9 15  1  0
 10 11  1  0
 10 14  1  0
 11 12  2  0
 12 13  1  0
 15 16  1  0
 16 17  2  0
 16 21  1  0
 17 18  1  0
 18 19  2  0
 19 20  1  0
 20 21  2  0
 20 23  1  0
 21 22  1  0
M  END
>  <Gold.Gold.Protein.RotatedWaterAtoms>  (546) 


>  <Gold.Id.Protein>  (546) 


>  <Gold.PLP.Chemscore.CHOScore>  (546) 
0.0000

>  <Gold.PLP.Chemscore.Hbond>  (546) 
1.0000

>  <Gold.PLP.Chemscore.Internal.Correction>  (546) 
0.0086

>  <Gold.PLP.Chemscore.Metal>  (546) 
0.0000

>  <Gold.PLP.Fitness>  (546) 
50.7139

>  <Gold.PLP.PLP>  (546) 
-48.1706

>  <Gold.PLP.ligand.clash>  (546) 
0.0000

>  <Gold.PLP.ligand.torsion>  (546) 
0.2327

>  <Gold.PLP.part.buried>  (546) 
-6.5205

>  <Gold.PLP.part.hbond>  (546) 
-2.0000

>  <Gold.PLP.part.metal>  (546) 
0.0000

>  <Gold.PLP.part.nonpolar>  (546) 
-39.3857

>  <Gold.PLP.part.repulsive>  (546) 
0.3298

>  <Gold.Protein.RotatedAtoms>  (546) 


>  <Gold.Protein.RotatedTorsions>  (546) 


>  <Gold.Protein.RotatedWaterAtoms>  (546) 


>  <Gold.Version>  (546) 
5.3.0

>  <PLP.Chemscore.CHOScore>  (546) 


>  <PLP.Chemscore.Hbond>  (546) 


>  <PLP.Chemscore.Internal.Correction>  (546) 


>  <PLP.Chemscore.Metal>  (546) 


>  <PLP.Fitness>  (546) 


>  <PLP.PLP>  (546) 


>  <PLP.ligand.clash>  (546) 


>  <PLP.ligand.torsion>  (546) 


>  <PLP.part.buried>  (546) 


>  <PLP.part.hbond>  (546) 


>  <PLP.part.metal>  (546) 


>  <PLP.part.nonpolar>  (546) 


>  <PLP.part.repulsive>  (546) 


>  <RMSD>  (546) 
0.439733510035

>  <Torsion>  (546) 
177.672185574

>  <TorsionO>  (546) 
4.31728583372

>  <TorsionR>  (546) 
173.35489974

>  <Version>  (546) 


>  <product>  (546) 
76|Compound_31|Compounds_3D_F|sdf|13|dock2|1

>  <rmsd>  (546) 
-1

$$$$
99|Compound_41|Compounds_3D_F|sdf|16|dock3|1
     RDKit          3D

  9  8  0  0  0  0  0  0  0  0999 V2000
   -8.5753  -14.2686   10.3887 O   0  0  0  0  0  0  0  0  0  0  0  0
   -7.2654  -14.5491   10.4615 C   0  0  0  0  0  0  0  0  0  0  0  0
   -6.6662  -14.9019    9.4726 O   0  0  0  0  0  0  0  0  0  0  0  0
   -6.5400  -14.4252   11.7768 C   0  0  0  0  0  0  0  0  0  0  0  0
   -5.1818  -14.9569   11.6385 N   0  0  0  0  0  0  0  0  0  0  0  0
   -4.8552  -16.1308   12.2133 C   0  0  0  0  0  0  0  0  0  0  0  0
   -5.6860  -16.7480   12.8455 O   0  0  0  0  0  0  0  0  0  0  0  0
   -3.4002  -16.7011   12.0646 B   0  0  0  0  0  0  0  0  0  0  0  0
   -6.4718  -12.9515   12.1837 C   0  0  0  0  0  0  0  0  0  0  0  0
  1  2  1  0
  2  3  2  0
  2  4  1  0
  4  5  1  0
  4  9  1  0
  5  6  1  0
  6  7  2  0
  6  8  1  0
M  END
>  <Gold.Gold.Protein.RotatedWaterAtoms>  (547) 


>  <Gold.Id.Protein>  (547) 


>  <Gold.PLP.Chemscore.CHOScore>  (547) 
0.0000

>  <Gold.PLP.Chemscore.Hbond>  (547) 
2.3242

>  <Gold.PLP.Chemscore.Internal.Correction>  (547) 
0.0000

>  <Gold.PLP.Chemscore.Metal>  (547) 
0.0000

>  <Gold.PLP.Fitness>  (547) 
28.3013

>  <Gold.PLP.PLP>  (547) 
-21.8156

>  <Gold.PLP.ligand.clash>  (547) 
0.0000

>  <Gold.PLP.ligand.torsion>  (547) 
0.2435

>  <Gold.PLP.part.buried>  (547) 
-3.7767

>  <Gold.PLP.part.hbond>  (547) 
-3.0000

>  <Gold.PLP.part.metal>  (547) 
0.0000

>  <Gold.PLP.part.nonpolar>  (547) 
-14.4910

>  <Gold.PLP.part.repulsive>  (547) 
0.2763

>  <Gold.Protein.RotatedAtoms>  (547) 


>  <Gold.Protein.RotatedTorsions>  (547) 


>  <Gold.Protein.RotatedWaterAtoms>  (547) 


>  <Gold.Version>  (547) 
5.3.0

>  <PLP.Chemscore.CHOScore>  (547) 


>  <PLP.Chemscore.Hbond>  (547) 


>  <PLP.Chemscore.Internal.Correction>  (547) 


>  <PLP.Chemscore.Metal>  (547) 


>  <PLP.Fitness>  (547) 


>  <PLP.PLP>  (547) 


>  <PLP.ligand.clash>  (547) 


>  <PLP.ligand.torsion>  (547) 


>  <PLP.part.buried>  (547) 


>  <PLP.part.hbond>  (547) 


>  <PLP.part.metal>  (547) 


>  <PLP.part.nonpolar>  (547) 


>  <PLP.part.repulsive>  (547) 


>  <Version>  (547) 


$$$$
94|664022_40|Aromatic_carboxylic_acids_F|sdf|24|dock1|1
     RDKit          3D

 12 12  0  0  0  0  0  0  0  0999 V2000
   -8.2596  -17.1212   11.4595 C   0  0  0  0  0  0  0  0  0  0  0  0
   -7.6366  -15.8367   11.6688 N   0  0  0  0  0  0  0  0  0  0  0  0
   -8.3409  -14.6553   11.5719 C   0  0  0  0  0  0  0  0  0  0  0  0
   -9.5296  -14.5547   11.2978 O   0  0  0  0  0  0  0  0  0  0  0  0
   -7.5420  -13.4431   11.8503 C   0  0  0  0  0  0  0  0  0  0  0  0
   -8.1627  -12.1983   11.6738 C   0  0  0  0  0  0  0  0  0  0  0  0
   -7.4390  -11.0301   11.9055 C   0  0  0  0  0  0  0  0  0  0  0  0
   -6.1069  -11.0910   12.3103 C   0  0  0  0  0  0  0  0  0  0  0  0
   -5.4897  -12.3324   12.4853 C   0  0  0  0  0  0  0  0  0  0  0  0
   -6.2035  -13.5136   12.2549 C   0  0  0  0  0  0  0  0  0  0  0  0
   -5.3062  -15.1564   12.5638 Br  0  0  0  0  0  0  0  0  0  0  0  0
   -8.1960   -9.5005   11.6887 Cl  0  0  0  0  0  0  0  0  0  0  0  0
  1  2  1  0
  2  3  1  0
  3  4  2  0
  3  5  1  0
  5  6  2  0
  5 10  1  0
  6  7  1  0
  7  8  2  0
  7 12  1  0
  8  9  1  0
  9 10  2  0
 10 11  1  0
M  END
>  <Gold.Gold.Protein.RotatedWaterAtoms>  (548) 


>  <Gold.Id.Protein>  (548) 


>  <Gold.PLP.Chemscore.CHOScore>  (548) 
0.0000

>  <Gold.PLP.Chemscore.Hbond>  (548) 
0.4160

>  <Gold.PLP.Chemscore.Internal.Correction>  (548) 
0.0004

>  <Gold.PLP.Chemscore.Metal>  (548) 
0.0000

>  <Gold.PLP.Fitness>  (548) 
48.9046

>  <Gold.PLP.PLP>  (548) 
-47.6744

>  <Gold.PLP.ligand.clash>  (548) 
0.0000

>  <Gold.PLP.ligand.torsion>  (548) 
0.0091

>  <Gold.PLP.part.buried>  (548) 
-7.3578

>  <Gold.PLP.part.hbond>  (548) 
-0.5127

>  <Gold.PLP.part.metal>  (548) 
0.0000

>  <Gold.PLP.part.nonpolar>  (548) 
-40.3098

>  <Gold.PLP.part.repulsive>  (548) 
0.1684

>  <Gold.Protein.RotatedAtoms>  (548) 


>  <Gold.Protein.RotatedTorsions>  (548) 


>  <Gold.Protein.RotatedWaterAtoms>  (548) 


>  <Gold.Version>  (548) 
5.3.0

>  <PLP.Chemscore.CHOScore>  (548) 


>  <PLP.Chemscore.Hbond>  (548) 


>  <PLP.Chemscore.Internal.Correction>  (548) 


>  <PLP.Chemscore.Metal>  (548) 


>  <PLP.Fitness>  (548) 


>  <PLP.PLP>  (548) 


>  <PLP.ligand.clash>  (548) 


>  <PLP.ligand.torsion>  (548) 


>  <PLP.part.buried>  (548) 


>  <PLP.part.hbond>  (548) 


>  <PLP.part.metal>  (548) 


>  <PLP.part.nonpolar>  (548) 


>  <PLP.part.repulsive>  (548) 


>  <RMSD>  (548) 
0.30972197429

>  <Torsion>  (548) 
172.929186758

>  <TorsionO>  (548) 
24.4968065243

>  <TorsionR>  (548) 
162.574006718

>  <Version>  (548) 


>  <product>  (548) 
99|Compound_41|Compounds_3D_F|sdf|16|dock3|1

>  <rmsd>  (548) 
-1

$$$$
110|565385_49|Aromatic_carboxylic_acids_F|sdf|29|dock1|1
     RDKit          3D

 13 13  0  0  0  0  0  0  0  0999 V2000
  -10.1118  -17.9021   11.6320 C   0  0  0  0  0  0  0  0  0  0  0  0
   -9.7537  -16.5043   11.6546 N   0  0  0  0  0  0  0  0  0  0  0  0
   -8.4330  -16.1187   11.7930 C   0  0  0  0  0  0  0  0  0  0  0  0
   -7.5159  -16.9298   11.9008 O   0  0  0  0  0  0  0  0  0  0  0  0
   -8.1234  -14.6552   11.8105 C   0  0  0  0  0  0  0  0  0  0  0  0
   -9.0636  -13.6551   11.5375 C   0  0  0  0  0  0  0  0  0  0  0  0
   -8.6966  -12.3009   11.5726 C   0  0  0  0  0  0  0  0  0  0  0  0
   -7.3879  -11.9195   11.8809 C   0  0  0  0  0  0  0  0  0  0  0  0
   -6.4486  -12.9235   12.1551 C   0  0  0  0  0  0  0  0  0  0  0  0
   -6.8098  -14.2750   12.1207 C   0  0  0  0  0  0  0  0  0  0  0  0
   -4.6444  -12.5025   12.5849 Br  0  0  0  0  0  0  0  0  0  0  0  0
   -6.9476  -10.6242   11.9372 O   0  0  0  0  0  0  0  0  0  0  0  0
   -7.9020   -9.5910   11.7256 C   0  0  0  0  0  0  0  0  0  0  0  0
  1  2  1  0
  2  3  1  0
  3  4  2  0
  3  5  1  0
  5  6  2  0
  5 10  1  0
  6  7  1  0
  7  8  2  0
  8  9  1  0
  8 12  1  0
  9 10  2  0
  9 11  1  0
 12 13  1  0
M  END
>  <Gold.Gold.Protein.RotatedWaterAtoms>  (549) 


>  <Gold.Id.Protein>  (549) 


>  <Gold.PLP.Chemscore.CHOScore>  (549) 
0.0000

>  <Gold.PLP.Chemscore.Hbond>  (549) 
1.0000

>  <Gold.PLP.Chemscore.Internal.Correction>  (549) 
0.0000

>  <Gold.PLP.Chemscore.Metal>  (549) 
0.0000

>  <Gold.PLP.Fitness>  (549) 
43.9775

>  <Gold.PLP.PLP>  (549) 
-41.0517

>  <Gold.PLP.ligand.clash>  (549) 
0.0000

>  <Gold.PLP.ligand.torsion>  (549) 
0.0371

>  <Gold.PLP.part.buried>  (549) 
-3.7367

>  <Gold.PLP.part.hbond>  (549) 
-1.0000

>  <Gold.PLP.part.metal>  (549) 
0.0000

>  <Gold.PLP.part.nonpolar>  (549) 
-36.7483

>  <Gold.PLP.part.repulsive>  (549) 
0.4054

>  <Gold.Protein.RotatedAtoms>  (549) 


>  <Gold.Protein.RotatedTorsions>  (549) 


>  <Gold.Protein.RotatedWaterAtoms>  (549) 


>  <Gold.Version>  (549) 
5.3.0

>  <PLP.Chemscore.CHOScore>  (549) 


>  <PLP.Chemscore.Hbond>  (549) 


>  <PLP.Chemscore.Internal.Correction>  (549) 


>  <PLP.Chemscore.Metal>  (549) 


>  <PLP.Fitness>  (549) 


>  <PLP.PLP>  (549) 


>  <PLP.ligand.clash>  (549) 


>  <PLP.ligand.torsion>  (549) 


>  <PLP.part.buried>  (549) 


>  <PLP.part.hbond>  (549) 


>  <PLP.part.metal>  (549) 


>  <PLP.part.nonpolar>  (549) 


>  <PLP.part.repulsive>  (549) 


>  <RMSD>  (549) 
0.319376411377

>  <Torsion>  (549) 
169.460450784

>  <TorsionO>  (549) 
9.7963905484

>  <TorsionR>  (549) 
179.256841332

>  <Version>  (549) 


>  <product>  (549) 
99|Compound_41|Compounds_3D_F|sdf|16|dock3|1

>  <rmsd>  (549) 
-1

$$$$
128|137677_56|Aromatic_carboxylic_acids_F|sdf|33|dock1|1
     RDKit          3D

 11 11  0  0  0  0  0  0  0  0999 V2000
   -8.6116  -16.1544   11.8887 C   0  0  0  0  0  0  0  0  0  0  0  0
   -7.9978  -14.8484   11.9215 N   0  0  0  0  0  0  0  0  0  0  0  0
   -8.7778  -13.7008   11.8756 C   0  0  0  0  0  0  0  0  0  0  0  0
  -10.0002  -13.7896   11.8139 O   0  0  0  0  0  0  0  0  0  0  0  0
   -8.0808  -12.3609   11.9017 C   0  0  0  0  0  0  0  0  0  0  0  0
   -8.7916  -11.1851   11.5813 C   0  0  0  0  0  0  0  0  0  0  0  0
   -8.1781   -9.9267   11.5989 C   0  0  0  0  0  0  0  0  0  0  0  0
   -6.8391   -9.8089   11.9369 C   0  0  0  0  0  0  0  0  0  0  0  0
   -6.1124  -10.9502   12.2575 C   0  0  0  0  0  0  0  0  0  0  0  0
   -6.7171  -12.2196   12.2428 C   0  0  0  0  0  0  0  0  0  0  0  0
   -5.5419  -13.6455   12.7121 Br  0  0  0  0  0  0  0  0  0  0  0  0
  1  2  1  0
  2  3  1  0
  3  4  2  0
  3  5  1  0
  5  6  2  0
  5 10  1  0
  6  7  1  0
  7  8  2  0
  8  9  1  0
  9 10  2  0
 10 11  1  0
M  END
>  <Gold.Gold.Protein.RotatedWaterAtoms>  (550) 


>  <Gold.Id.Protein>  (550) 


>  <Gold.PLP.Chemscore.CHOScore>  (550) 
0.0000

>  <Gold.PLP.Chemscore.Hbond>  (550) 
1.0000

>  <Gold.PLP.Chemscore.Internal.Correction>  (550) 
0.0000

>  <Gold.PLP.Chemscore.Metal>  (550) 
0.0000

>  <Gold.PLP.Fitness>  (550) 
45.2899

>  <Gold.PLP.PLP>  (550) 
-42.4444

>  <Gold.PLP.ligand.clash>  (550) 
0.0000

>  <Gold.PLP.ligand.torsion>  (550) 
0.0772

>  <Gold.PLP.part.buried>  (550) 
-6.4690

>  <Gold.PLP.part.hbond>  (550) 
-0.6863

>  <Gold.PLP.part.metal>  (550) 
0.0000

>  <Gold.PLP.part.nonpolar>  (550) 
-34.8280

>  <Gold.PLP.part.repulsive>  (550) 
0.1963

>  <Gold.Protein.RotatedAtoms>  (550) 


>  <Gold.Protein.RotatedTorsions>  (550) 


>  <Gold.Protein.RotatedWaterAtoms>  (550) 


>  <Gold.Version>  (550) 
5.3.0

>  <PLP.Chemscore.CHOScore>  (550) 


>  <PLP.Chemscore.Hbond>  (550) 


>  <PLP.Chemscore.Internal.Correction>  (550) 


>  <PLP.Chemscore.Metal>  (550) 


>  <PLP.Fitness>  (550) 


>  <PLP.PLP>  (550) 


>  <PLP.ligand.clash>  (550) 


>  <PLP.ligand.torsion>  (550) 


>  <PLP.part.buried>  (550) 


>  <PLP.part.hbond>  (550) 


>  <PLP.part.metal>  (550) 


>  <PLP.part.nonpolar>  (550) 


>  <PLP.part.repulsive>  (550) 


>  <RMSD>  (550) 
0.428070490903

>  <Torsion>  (550) 
152.444048788

>  <TorsionO>  (550) 
39.0580871276

>  <TorsionR>  (550) 
168.497864085

>  <Version>  (550) 


>  <product>  (550) 
99|Compound_41|Compounds_3D_F|sdf|16|dock3|1

>  <rmsd>  (550) 
-1

$$$$
974|750794_1404|Aromatic_primary_amines_F|sdf|194|dock3|1
     RDKit          3D

 14 14  0  0  0  0  0  0  0  0999 V2000
  -13.6355  -18.1936    9.4145 C   0  0  0  0  0  0  0  0  0  0  0  0
  -13.2544  -19.4497   10.1732 C   0  0  0  0  0  0  0  0  0  0  0  0
  -11.8731  -19.3506   10.5383 O   0  0  0  0  0  0  0  0  0  0  0  0
  -11.6148  -18.5085   11.5823 C   0  0  0  0  0  0  0  0  0  0  0  0
  -12.3947  -18.2810   12.5004 O   0  0  0  0  0  0  0  0  0  0  0  0
  -10.3031  -17.8985   11.4902 C   0  0  0  0  0  0  0  0  0  0  0  0
   -9.1673  -18.4974   10.9931 C   0  0  0  0  0  0  0  0  0  0  0  0
   -8.1448  -17.6055   11.0758 O   0  0  0  0  0  0  0  0  0  0  0  0
   -8.7110  -16.4917   11.6237 C   0  0  0  0  0  0  0  0  0  0  0  0
   -9.9933  -16.6110   11.8915 N   0  0  0  0  0  0  0  0  0  0  0  0
   -7.9611  -15.3718   11.8549 N   0  0  0  0  0  0  0  0  0  0  0  0
   -8.5046  -14.1249   12.0676 C   0  0  0  0  0  0  0  0  0  0  0  0
   -9.6950  -13.8313   12.1035 O   0  0  0  0  0  0  0  0  0  0  0  0
   -7.4448  -13.0785   12.3021 C   0  0  0  0  0  0  0  0  0  0  0  0
  1  2  1  0
  2  3  1  0
  3  4  1  0
  4  5  2  0
  4  6  1  0
  6  7  2  0
  6 10  1  0
  7  8  1  0
  8  9  1  0
  9 10  2  0
  9 11  1  0
 11 12  1  0
 12 13  2  0
 12 14  1  0
M  END
>  <Gold.Gold.Protein.RotatedWaterAtoms>  (551) 


>  <Gold.Id.Protein>  (551) 


>  <Gold.PLP.Chemscore.CHOScore>  (551) 
0.0000

>  <Gold.PLP.Chemscore.Hbond>  (551) 
2.0000

>  <Gold.PLP.Chemscore.Internal.Correction>  (551) 
0.0053

>  <Gold.PLP.Chemscore.Metal>  (551) 
0.0000

>  <Gold.PLP.Fitness>  (551) 
36.8047

>  <Gold.PLP.PLP>  (551) 
-32.7996

>  <Gold.PLP.ligand.clash>  (551) 
0.0000

>  <Gold.PLP.ligand.torsion>  (551) 
1.0001

>  <Gold.PLP.part.buried>  (551) 
-6.5206

>  <Gold.PLP.part.hbond>  (551) 
-2.9156

>  <Gold.PLP.part.metal>  (551) 
0.0000

>  <Gold.PLP.part.nonpolar>  (551) 
-23.4080

>  <Gold.PLP.part.repulsive>  (551) 
0.3100

>  <Gold.Protein.RotatedAtoms>  (551) 


>  <Gold.Protein.RotatedTorsions>  (551) 


>  <Gold.Protein.RotatedWaterAtoms>  (551) 


>  <Gold.Version>  (551) 
5.3.0

>  <PLP.Chemscore.CHOScore>  (551) 


>  <PLP.Chemscore.Hbond>  (551) 


>  <PLP.Chemscore.Internal.Correction>  (551) 


>  <PLP.Chemscore.Metal>  (551) 


>  <PLP.Fitness>  (551) 


>  <PLP.PLP>  (551) 


>  <PLP.ligand.clash>  (551) 


>  <PLP.ligand.torsion>  (551) 


>  <PLP.part.buried>  (551) 


>  <PLP.part.hbond>  (551) 


>  <PLP.part.metal>  (551) 


>  <PLP.part.nonpolar>  (551) 


>  <PLP.part.repulsive>  (551) 


>  <RMSD>  (551) 
0.499949349045

>  <Torsion>  (551) 
159.973716791

>  <TorsionO>  (551) 
19.1052109979

>  <TorsionR>  (551) 
179.078927789

>  <Version>  (551) 


>  <product>  (551) 
99|Compound_41|Compounds_3D_F|sdf|16|dock3|1

>  <rmsd>  (551) 
-1

$$$$
1884|M3006_1781|Aromatic_primary_amines_F|sdf|361|dock3|1
     RDKit          3D

 31 34  0  0  0  0  0  0  0  0999 V2000
  -14.4210  -19.8971    8.7934 C   0  0  0  0  0  0  0  0  0  0  0  0
  -13.9762  -19.4927   10.1894 C   0  0  0  0  0  0  0  0  0  0  0  0
  -14.1356  -20.6409   11.1817 C   0  0  0  0  0  0  0  0  0  0  0  0
  -13.5197  -20.3070   12.5189 C   0  0  0  0  0  0  0  0  0  0  0  0
  -12.9307  -19.2724   12.7954 O   0  0  0  0  0  0  0  0  0  0  0  0
  -13.7110  -21.3451   13.3845 O   0  0  0  0  0  0  0  0  0  0  0  0
  -12.9425  -21.2698   14.5900 C   0  0  0  0  0  0  0  0  0  0  0  0
  -12.8849  -22.6189   15.2889 C   0  0  0  0  0  0  0  0  0  0  0  0
  -11.6552  -22.4172   16.1494 C   0  0  0  0  0  0  0  0  0  0  0  0
  -11.2420  -23.7410   16.7624 C   0  0  0  0  0  0  0  0  0  0  0  0
  -12.3024  -24.2223   17.5862 O   0  0  0  0  0  0  0  0  0  0  0  0
  -13.7888  -24.3384   16.9603 P   0  0  0  0  0  0  0  0  0  0  0  0
  -14.8775  -24.6795   17.9243 O   0  0  0  0  0  0  0  0  0  0  0  0
  -13.9839  -22.9641   16.1174 O   0  0  0  0  0  0  0  0  0  0  0  0
  -13.5991  -25.4435   15.8075 O   0  0  0  0  0  0  0  0  0  0  0  0
  -10.6922  -21.8161   15.2889 O   0  0  0  0  0  0  0  0  0  0  0  0
  -11.4338  -20.9664   14.3653 C   0  0  0  0  0  0  0  0  0  0  0  0
  -10.9052  -21.2017   13.0342 N   0  0  0  0  0  0  0  0  0  0  0  0
  -10.7814  -22.4114   12.4013 C   0  0  0  0  0  0  0  0  0  0  0  0
  -10.2640  -22.2918   11.1953 N   0  0  0  0  0  0  0  0  0  0  0  0
  -10.0274  -20.9476   11.0424 C   0  0  0  0  0  0  0  0  0  0  0  0
  -10.4203  -20.2487   12.1733 C   0  0  0  0  0  0  0  0  0  0  0  0
  -10.3338  -18.9216   12.3641 N   0  0  0  0  0  0  0  0  0  0  0  0
   -9.8057  -18.2730   11.3024 C   0  0  0  0  0  0  0  0  0  0  0  0
   -9.3808  -18.8370   10.1545 N   0  0  0  0  0  0  0  0  0  0  0  0
   -9.4895  -20.1691   10.0244 C   0  0  0  0  0  0  0  0  0  0  0  0
   -9.0330  -20.6622    8.8349 O   0  0  0  0  0  0  0  0  0  0  0  0
   -9.7222  -16.8901   11.4793 N   0  0  0  0  0  0  0  0  0  0  0  0
   -8.5796  -16.1798   11.7761 C   0  0  0  0  0  0  0  0  0  0  0  0
   -7.4445  -16.6221   11.9131 O   0  0  0  0  0  0  0  0  0  0  0  0
   -8.8524  -14.7024   11.8973 C   0  0  0  0  0  0  0  0  0  0  0  0
  1  2  1  0
  2  3  1  0
  3  4  1  0
  4  5  2  0
  4  6  1  0
  6  7  1  0
  7  8  1  0
  7 17  1  0
  8  9  1  0
  8 14  1  0
  9 10  1  0
  9 16  1  0
 10 11  1  0
 11 12  1  0
 12 13  2  0
 12 14  1  0
 12 15  1  0
 16 17  1  0
 17 18  1  0
 18 19  1  0
 18 22  1  0
 19 20  2  0
 20 21  1  0
 21 22  2  0
 21 26  1  0
 22 23  1  0
 23 24  2  0
 24 25  1  0
 24 28  1  0
 25 26  2  0
 26 27  1  0
 28 29  1  0
 29 30  2  0
 29 31  1  0
M  END
>  <Gold.Gold.Protein.RotatedWaterAtoms>  (552) 


>  <Gold.Id.Protein>  (552) 


>  <Gold.PLP.Chemscore.CHOScore>  (552) 
0.0000

>  <Gold.PLP.Chemscore.Hbond>  (552) 
1.2080

>  <Gold.PLP.Chemscore.Internal.Correction>  (552) 
0.1232

>  <Gold.PLP.Chemscore.Metal>  (552) 
0.0000

>  <Gold.PLP.Fitness>  (552) 
47.7145

>  <Gold.PLP.PLP>  (552) 
-46.0218

>  <Gold.PLP.ligand.clash>  (552) 
0.0000

>  <Gold.PLP.ligand.torsion>  (552) 
1.0272

>  <Gold.PLP.part.buried>  (552) 
-2.2958

>  <Gold.PLP.part.hbond>  (552) 
-4.0214

>  <Gold.PLP.part.metal>  (552) 
0.0000

>  <Gold.PLP.part.nonpolar>  (552) 
-41.4699

>  <Gold.PLP.part.repulsive>  (552) 
0.9524

>  <Gold.Protein.RotatedAtoms>  (552) 


>  <Gold.Protein.RotatedTorsions>  (552) 


>  <Gold.Protein.RotatedWaterAtoms>  (552) 


>  <Gold.Version>  (552) 
5.3.0

>  <PLP.Chemscore.CHOScore>  (552) 


>  <PLP.Chemscore.Hbond>  (552) 


>  <PLP.Chemscore.Internal.Correction>  (552) 


>  <PLP.Chemscore.Metal>  (552) 


>  <PLP.Fitness>  (552) 


>  <PLP.PLP>  (552) 


>  <PLP.ligand.clash>  (552) 


>  <PLP.ligand.torsion>  (552) 


>  <PLP.part.buried>  (552) 


>  <PLP.part.hbond>  (552) 


>  <PLP.part.metal>  (552) 


>  <PLP.part.nonpolar>  (552) 


>  <PLP.part.repulsive>  (552) 


>  <RMSD>  (552) 
0.291955871297

>  <Torsion>  (552) 
171.923704933

>  <TorsionO>  (552) 
6.03609353985

>  <TorsionR>  (552) 
177.959798473

>  <Version>  (552) 


>  <product>  (552) 
99|Compound_41|Compounds_3D_F|sdf|16|dock3|1

>  <rmsd>  (552) 
-1

$$$$
193|32168_281|Aromatic_primary_amines_F|sdf|39|dock6|1
     RDKit          3D

 23 25  0  0  0  0  0  0  0  0999 V2000
   -7.8439  -12.1461   11.8919 C   0  0  0  0  0  0  0  0  0  0  0  0
   -8.5691  -13.4472   11.6781 C   0  0  0  0  0  0  0  0  0  0  0  0
   -9.7886  -13.4981   11.5208 O   0  0  0  0  0  0  0  0  0  0  0  0
   -7.7264  -14.5390   11.7020 N   0  0  0  0  0  0  0  0  0  0  0  0
   -8.1889  -15.8197   11.5323 C   0  0  0  0  0  0  0  0  0  0  0  0
   -9.4747  -16.2039   11.8163 N   0  0  0  0  0  0  0  0  0  0  0  0
   -9.5964  -17.5375   11.5379 C   0  0  0  0  0  0  0  0  0  0  0  0
  -10.6643  -18.4283   11.6415 C   0  0  0  0  0  0  0  0  0  0  0  0
  -10.4051  -19.7586   11.2778 C   0  0  0  0  0  0  0  0  0  0  0  0
   -9.1530  -20.1507   10.7795 C   0  0  0  0  0  0  0  0  0  0  0  0
   -8.1017  -19.2294   10.6839 C   0  0  0  0  0  0  0  0  0  0  0  0
   -8.3349  -17.9032   11.0783 C   0  0  0  0  0  0  0  0  0  0  0  0
   -7.4773  -16.8281   11.0838 N   0  0  0  0  0  0  0  0  0  0  0  0
   -8.8530  -21.7658   10.2429 Cl  0  0  0  0  0  0  0  0  0  0  0  0
  -11.4669  -20.6323   11.3734 O   0  0  0  0  0  0  0  0  0  0  0  0
  -12.5262  -20.4408   10.5053 C   0  0  0  0  0  0  0  0  0  0  0  0
  -13.3188  -19.2846   10.5304 C   0  0  0  0  0  0  0  0  0  0  0  0
  -14.3665  -19.1344    9.6224 C   0  0  0  0  0  0  0  0  0  0  0  0
  -14.6219  -20.1279    8.6796 C   0  0  0  0  0  0  0  0  0  0  0  0
  -13.8238  -21.2756    8.6345 C   0  0  0  0  0  0  0  0  0  0  0  0
  -12.7674  -21.4342    9.5416 C   0  0  0  0  0  0  0  0  0  0  0  0
  -11.7588  -22.8458    9.4996 Cl  0  0  0  0  0  0  0  0  0  0  0  0
  -14.1988  -22.4584    7.4296 Cl  0  0  0  0  0  0  0  0  0  0  0  0
  1  2  1  0
  2  3  2  0
  2  4  1  0
  4  5  1  0
  5  6  1  0
  5 13  2  0
  6  7  1  0
  7  8  2  0
  7 12  1  0
  8  9  1  0
  9 10  2  0
  9 15  1  0
 10 11  1  0
 10 14  1  0
 11 12  2  0
 12 13  1  0
 15 16  1  0
 16 17  2  0
 16 21  1  0
 17 18  1  0
 18 19  2  0
 19 20  1  0
 20 21  2  0
 20 23  1  0
 21 22  1  0
M  END
>  <Gold.Gold.Protein.RotatedWaterAtoms>  (553) 


>  <Gold.Id.Protein>  (553) 


>  <Gold.PLP.Chemscore.CHOScore>  (553) 
0.0000

>  <Gold.PLP.Chemscore.Hbond>  (553) 
1.0000

>  <Gold.PLP.Chemscore.Internal.Correction>  (553) 
0.0086

>  <Gold.PLP.Chemscore.Metal>  (553) 
0.0000

>  <Gold.PLP.Fitness>  (553) 
50.7139

>  <Gold.PLP.PLP>  (553) 
-48.1706

>  <Gold.PLP.ligand.clash>  (553) 
0.0000

>  <Gold.PLP.ligand.torsion>  (553) 
0.2327

>  <Gold.PLP.part.buried>  (553) 
-6.5205

>  <Gold.PLP.part.hbond>  (553) 
-2.0000

>  <Gold.PLP.part.metal>  (553) 
0.0000

>  <Gold.PLP.part.nonpolar>  (553) 
-39.3857

>  <Gold.PLP.part.repulsive>  (553) 
0.3298

>  <Gold.Protein.RotatedAtoms>  (553) 


>  <Gold.Protein.RotatedTorsions>  (553) 


>  <Gold.Protein.RotatedWaterAtoms>  (553) 


>  <Gold.Version>  (553) 
5.3.0

>  <PLP.Chemscore.CHOScore>  (553) 


>  <PLP.Chemscore.Hbond>  (553) 


>  <PLP.Chemscore.Internal.Correction>  (553) 


>  <PLP.Chemscore.Metal>  (553) 


>  <PLP.Fitness>  (553) 


>  <PLP.PLP>  (553) 


>  <PLP.ligand.clash>  (553) 


>  <PLP.ligand.torsion>  (553) 


>  <PLP.part.buried>  (553) 


>  <PLP.part.hbond>  (553) 


>  <PLP.part.metal>  (553) 


>  <PLP.part.nonpolar>  (553) 


>  <PLP.part.repulsive>  (553) 


>  <RMSD>  (553) 
0.439733510035

>  <Torsion>  (553) 
177.672185574

>  <TorsionO>  (553) 
4.31728583372

>  <TorsionR>  (553) 
173.35489974

>  <Version>  (553) 


>  <product>  (553) 
99|Compound_41|Compounds_3D_F|sdf|16|dock3|1

>  <rmsd>  (553) 
-1

$$$$
4|Compound_3|Compounds_3D_F|sdf|2|dock2|1
     RDKit          3D

  9  8  0  0  0  0  0  0  0  0999 V2000
   -5.4409  -15.1932    9.3167 O   0  0  0  0  0  0  0  0  0  0  0  0
   -6.1028  -15.8733   10.3846 C   0  0  0  0  0  0  0  0  0  0  0  0
   -5.2058  -15.8733   11.6235 C   0  0  0  0  0  0  0  0  0  0  0  0
   -4.8232  -14.4974   11.9499 N   0  0  0  0  0  0  0  0  0  0  0  0
   -5.7734  -13.5632   12.1511 C   0  0  0  0  0  0  0  0  0  0  0  0
   -6.9462  -13.8617   12.0622 O   0  0  0  0  0  0  0  0  0  0  0  0
   -5.3637  -12.0891   12.5015 B   0  0  0  0  0  0  0  0  0  0  0  0
   -5.9659  -16.4839   12.8031 C   0  0  0  0  0  0  0  0  0  0  0  0
   -3.9494  -16.6993   11.3444 C   0  0  0  0  0  0  0  0  0  0  0  0
  1  2  1  0
  2  3  1  0
  3  4  1  0
  3  8  1  0
  3  9  1  0
  4  5  1  0
  5  6  2  0
  5  7  1  0
M  END
>  <Gold.Gold.Protein.RotatedWaterAtoms>  (554) 


>  <Gold.Id.Protein>  (554) 


>  <Gold.PLP.Chemscore.CHOScore>  (554) 
0.0000

>  <Gold.PLP.Chemscore.Hbond>  (554) 
1.9750

>  <Gold.PLP.Chemscore.Internal.Correction>  (554) 
0.0000

>  <Gold.PLP.Chemscore.Metal>  (554) 
0.0000

>  <Gold.PLP.Fitness>  (554) 
32.7930

>  <Gold.PLP.PLP>  (554) 
-26.9651

>  <Gold.PLP.ligand.clash>  (554) 
0.0000

>  <Gold.PLP.ligand.torsion>  (554) 
0.0485

>  <Gold.PLP.part.buried>  (554) 
-4.4008

>  <Gold.PLP.part.hbond>  (554) 
-4.0000

>  <Gold.PLP.part.metal>  (554) 
0.0000

>  <Gold.PLP.part.nonpolar>  (554) 
-18.6216

>  <Gold.PLP.part.repulsive>  (554) 
0.2351

>  <Gold.Protein.RotatedAtoms>  (554) 


>  <Gold.Protein.RotatedTorsions>  (554) 


>  <Gold.Protein.RotatedWaterAtoms>  (554) 


>  <Gold.Version>  (554) 
5.3.0

>  <PLP.Chemscore.CHOScore>  (554) 


>  <PLP.Chemscore.Hbond>  (554) 


>  <PLP.Chemscore.Internal.Correction>  (554) 


>  <PLP.Chemscore.Metal>  (554) 


>  <PLP.Fitness>  (554) 


>  <PLP.PLP>  (554) 


>  <PLP.ligand.clash>  (554) 


>  <PLP.ligand.torsion>  (554) 


>  <PLP.part.buried>  (554) 


>  <PLP.part.hbond>  (554) 


>  <PLP.part.metal>  (554) 


>  <PLP.part.nonpolar>  (554) 


>  <PLP.part.repulsive>  (554) 


>  <Version>  (554) 


$$$$
94|664022_40|Aromatic_carboxylic_acids_F|sdf|24|dock1|1
     RDKit          3D

 12 12  0  0  0  0  0  0  0  0999 V2000
   -8.2596  -17.1212   11.4595 C   0  0  0  0  0  0  0  0  0  0  0  0
   -7.6366  -15.8367   11.6688 N   0  0  0  0  0  0  0  0  0  0  0  0
   -8.3409  -14.6553   11.5719 C   0  0  0  0  0  0  0  0  0  0  0  0
   -9.5296  -14.5547   11.2978 O   0  0  0  0  0  0  0  0  0  0  0  0
   -7.5420  -13.4431   11.8503 C   0  0  0  0  0  0  0  0  0  0  0  0
   -8.1627  -12.1983   11.6738 C   0  0  0  0  0  0  0  0  0  0  0  0
   -7.4390  -11.0301   11.9055 C   0  0  0  0  0  0  0  0  0  0  0  0
   -6.1069  -11.0910   12.3103 C   0  0  0  0  0  0  0  0  0  0  0  0
   -5.4897  -12.3324   12.4853 C   0  0  0  0  0  0  0  0  0  0  0  0
   -6.2035  -13.5136   12.2549 C   0  0  0  0  0  0  0  0  0  0  0  0
   -5.3062  -15.1564   12.5638 Br  0  0  0  0  0  0  0  0  0  0  0  0
   -8.1960   -9.5005   11.6887 Cl  0  0  0  0  0  0  0  0  0  0  0  0
  1  2  1  0
  2  3  1  0
  3  4  2  0
  3  5  1  0
  5  6  2  0
  5 10  1  0
  6  7  1  0
  7  8  2  0
  7 12  1  0
  8  9  1  0
  9 10  2  0
 10 11  1  0
M  END
>  <Gold.Gold.Protein.RotatedWaterAtoms>  (555) 


>  <Gold.Id.Protein>  (555) 


>  <Gold.PLP.Chemscore.CHOScore>  (555) 
0.0000

>  <Gold.PLP.Chemscore.Hbond>  (555) 
0.4160

>  <Gold.PLP.Chemscore.Internal.Correction>  (555) 
0.0004

>  <Gold.PLP.Chemscore.Metal>  (555) 
0.0000

>  <Gold.PLP.Fitness>  (555) 
48.9046

>  <Gold.PLP.PLP>  (555) 
-47.6744

>  <Gold.PLP.ligand.clash>  (555) 
0.0000

>  <Gold.PLP.ligand.torsion>  (555) 
0.0091

>  <Gold.PLP.part.buried>  (555) 
-7.3578

>  <Gold.PLP.part.hbond>  (555) 
-0.5127

>  <Gold.PLP.part.metal>  (555) 
0.0000

>  <Gold.PLP.part.nonpolar>  (555) 
-40.3098

>  <Gold.PLP.part.repulsive>  (555) 
0.1684

>  <Gold.Protein.RotatedAtoms>  (555) 


>  <Gold.Protein.RotatedTorsions>  (555) 


>  <Gold.Protein.RotatedWaterAtoms>  (555) 


>  <Gold.Version>  (555) 
5.3.0

>  <PLP.Chemscore.CHOScore>  (555) 


>  <PLP.Chemscore.Hbond>  (555) 


>  <PLP.Chemscore.Internal.Correction>  (555) 


>  <PLP.Chemscore.Metal>  (555) 


>  <PLP.Fitness>  (555) 


>  <PLP.PLP>  (555) 


>  <PLP.ligand.clash>  (555) 


>  <PLP.ligand.torsion>  (555) 


>  <PLP.part.buried>  (555) 


>  <PLP.part.hbond>  (555) 


>  <PLP.part.metal>  (555) 


>  <PLP.part.nonpolar>  (555) 


>  <PLP.part.repulsive>  (555) 


>  <RMSD>  (555) 
0.30972197429

>  <Torsion>  (555) 
172.929186758

>  <TorsionO>  (555) 
24.4968065243

>  <TorsionR>  (555) 
162.574006718

>  <Version>  (555) 


>  <product>  (555) 
4|Compound_3|Compounds_3D_F|sdf|2|dock2|1

>  <rmsd>  (555) 
-1

$$$$
110|565385_49|Aromatic_carboxylic_acids_F|sdf|29|dock1|1
     RDKit          3D

 13 13  0  0  0  0  0  0  0  0999 V2000
  -10.1118  -17.9021   11.6320 C   0  0  0  0  0  0  0  0  0  0  0  0
   -9.7537  -16.5043   11.6546 N   0  0  0  0  0  0  0  0  0  0  0  0
   -8.4330  -16.1187   11.7930 C   0  0  0  0  0  0  0  0  0  0  0  0
   -7.5159  -16.9298   11.9008 O   0  0  0  0  0  0  0  0  0  0  0  0
   -8.1234  -14.6552   11.8105 C   0  0  0  0  0  0  0  0  0  0  0  0
   -9.0636  -13.6551   11.5375 C   0  0  0  0  0  0  0  0  0  0  0  0
   -8.6966  -12.3009   11.5726 C   0  0  0  0  0  0  0  0  0  0  0  0
   -7.3879  -11.9195   11.8809 C   0  0  0  0  0  0  0  0  0  0  0  0
   -6.4486  -12.9235   12.1551 C   0  0  0  0  0  0  0  0  0  0  0  0
   -6.8098  -14.2750   12.1207 C   0  0  0  0  0  0  0  0  0  0  0  0
   -4.6444  -12.5025   12.5849 Br  0  0  0  0  0  0  0  0  0  0  0  0
   -6.9476  -10.6242   11.9372 O   0  0  0  0  0  0  0  0  0  0  0  0
   -7.9020   -9.5910   11.7256 C   0  0  0  0  0  0  0  0  0  0  0  0
  1  2  1  0
  2  3  1  0
  3  4  2  0
  3  5  1  0
  5  6  2  0
  5 10  1  0
  6  7  1  0
  7  8  2  0
  8  9  1  0
  8 12  1  0
  9 10  2  0
  9 11  1  0
 12 13  1  0
M  END
>  <Gold.Gold.Protein.RotatedWaterAtoms>  (556) 


>  <Gold.Id.Protein>  (556) 


>  <Gold.PLP.Chemscore.CHOScore>  (556) 
0.0000

>  <Gold.PLP.Chemscore.Hbond>  (556) 
1.0000

>  <Gold.PLP.Chemscore.Internal.Correction>  (556) 
0.0000

>  <Gold.PLP.Chemscore.Metal>  (556) 
0.0000

>  <Gold.PLP.Fitness>  (556) 
43.9775

>  <Gold.PLP.PLP>  (556) 
-41.0517

>  <Gold.PLP.ligand.clash>  (556) 
0.0000

>  <Gold.PLP.ligand.torsion>  (556) 
0.0371

>  <Gold.PLP.part.buried>  (556) 
-3.7367

>  <Gold.PLP.part.hbond>  (556) 
-1.0000

>  <Gold.PLP.part.metal>  (556) 
0.0000

>  <Gold.PLP.part.nonpolar>  (556) 
-36.7483

>  <Gold.PLP.part.repulsive>  (556) 
0.4054

>  <Gold.Protein.RotatedAtoms>  (556) 


>  <Gold.Protein.RotatedTorsions>  (556) 


>  <Gold.Protein.RotatedWaterAtoms>  (556) 


>  <Gold.Version>  (556) 
5.3.0

>  <PLP.Chemscore.CHOScore>  (556) 


>  <PLP.Chemscore.Hbond>  (556) 


>  <PLP.Chemscore.Internal.Correction>  (556) 


>  <PLP.Chemscore.Metal>  (556) 


>  <PLP.Fitness>  (556) 


>  <PLP.PLP>  (556) 


>  <PLP.ligand.clash>  (556) 


>  <PLP.ligand.torsion>  (556) 


>  <PLP.part.buried>  (556) 


>  <PLP.part.hbond>  (556) 


>  <PLP.part.metal>  (556) 


>  <PLP.part.nonpolar>  (556) 


>  <PLP.part.repulsive>  (556) 


>  <RMSD>  (556) 
0.319376411377

>  <Torsion>  (556) 
169.460450784

>  <TorsionO>  (556) 
9.7963905484

>  <TorsionR>  (556) 
179.256841332

>  <Version>  (556) 


>  <product>  (556) 
4|Compound_3|Compounds_3D_F|sdf|2|dock2|1

>  <rmsd>  (556) 
-1

$$$$
128|137677_56|Aromatic_carboxylic_acids_F|sdf|33|dock1|1
     RDKit          3D

 11 11  0  0  0  0  0  0  0  0999 V2000
   -8.6116  -16.1544   11.8887 C   0  0  0  0  0  0  0  0  0  0  0  0
   -7.9978  -14.8484   11.9215 N   0  0  0  0  0  0  0  0  0  0  0  0
   -8.7778  -13.7008   11.8756 C   0  0  0  0  0  0  0  0  0  0  0  0
  -10.0002  -13.7896   11.8139 O   0  0  0  0  0  0  0  0  0  0  0  0
   -8.0808  -12.3609   11.9017 C   0  0  0  0  0  0  0  0  0  0  0  0
   -8.7916  -11.1851   11.5813 C   0  0  0  0  0  0  0  0  0  0  0  0
   -8.1781   -9.9267   11.5989 C   0  0  0  0  0  0  0  0  0  0  0  0
   -6.8391   -9.8089   11.9369 C   0  0  0  0  0  0  0  0  0  0  0  0
   -6.1124  -10.9502   12.2575 C   0  0  0  0  0  0  0  0  0  0  0  0
   -6.7171  -12.2196   12.2428 C   0  0  0  0  0  0  0  0  0  0  0  0
   -5.5419  -13.6455   12.7121 Br  0  0  0  0  0  0  0  0  0  0  0  0
  1  2  1  0
  2  3  1  0
  3  4  2  0
  3  5  1  0
  5  6  2  0
  5 10  1  0
  6  7  1  0
  7  8  2  0
  8  9  1  0
  9 10  2  0
 10 11  1  0
M  END
>  <Gold.Gold.Protein.RotatedWaterAtoms>  (557) 


>  <Gold.Id.Protein>  (557) 


>  <Gold.PLP.Chemscore.CHOScore>  (557) 
0.0000

>  <Gold.PLP.Chemscore.Hbond>  (557) 
1.0000

>  <Gold.PLP.Chemscore.Internal.Correction>  (557) 
0.0000

>  <Gold.PLP.Chemscore.Metal>  (557) 
0.0000

>  <Gold.PLP.Fitness>  (557) 
45.2899

>  <Gold.PLP.PLP>  (557) 
-42.4444

>  <Gold.PLP.ligand.clash>  (557) 
0.0000

>  <Gold.PLP.ligand.torsion>  (557) 
0.0772

>  <Gold.PLP.part.buried>  (557) 
-6.4690

>  <Gold.PLP.part.hbond>  (557) 
-0.6863

>  <Gold.PLP.part.metal>  (557) 
0.0000

>  <Gold.PLP.part.nonpolar>  (557) 
-34.8280

>  <Gold.PLP.part.repulsive>  (557) 
0.1963

>  <Gold.Protein.RotatedAtoms>  (557) 


>  <Gold.Protein.RotatedTorsions>  (557) 


>  <Gold.Protein.RotatedWaterAtoms>  (557) 


>  <Gold.Version>  (557) 
5.3.0

>  <PLP.Chemscore.CHOScore>  (557) 


>  <PLP.Chemscore.Hbond>  (557) 


>  <PLP.Chemscore.Internal.Correction>  (557) 


>  <PLP.Chemscore.Metal>  (557) 


>  <PLP.Fitness>  (557) 


>  <PLP.PLP>  (557) 


>  <PLP.ligand.clash>  (557) 


>  <PLP.ligand.torsion>  (557) 


>  <PLP.part.buried>  (557) 


>  <PLP.part.hbond>  (557) 


>  <PLP.part.metal>  (557) 


>  <PLP.part.nonpolar>  (557) 


>  <PLP.part.repulsive>  (557) 


>  <RMSD>  (557) 
0.428070490903

>  <Torsion>  (557) 
152.444048788

>  <TorsionO>  (557) 
39.0580871276

>  <TorsionR>  (557) 
168.497864085

>  <Version>  (557) 


>  <product>  (557) 
4|Compound_3|Compounds_3D_F|sdf|2|dock2|1

>  <rmsd>  (557) 
-1

$$$$
974|750794_1404|Aromatic_primary_amines_F|sdf|194|dock3|1
     RDKit          3D

 14 14  0  0  0  0  0  0  0  0999 V2000
  -13.6355  -18.1936    9.4145 C   0  0  0  0  0  0  0  0  0  0  0  0
  -13.2544  -19.4497   10.1732 C   0  0  0  0  0  0  0  0  0  0  0  0
  -11.8731  -19.3506   10.5383 O   0  0  0  0  0  0  0  0  0  0  0  0
  -11.6148  -18.5085   11.5823 C   0  0  0  0  0  0  0  0  0  0  0  0
  -12.3947  -18.2810   12.5004 O   0  0  0  0  0  0  0  0  0  0  0  0
  -10.3031  -17.8985   11.4902 C   0  0  0  0  0  0  0  0  0  0  0  0
   -9.1673  -18.4974   10.9931 C   0  0  0  0  0  0  0  0  0  0  0  0
   -8.1448  -17.6055   11.0758 O   0  0  0  0  0  0  0  0  0  0  0  0
   -8.7110  -16.4917   11.6237 C   0  0  0  0  0  0  0  0  0  0  0  0
   -9.9933  -16.6110   11.8915 N   0  0  0  0  0  0  0  0  0  0  0  0
   -7.9611  -15.3718   11.8549 N   0  0  0  0  0  0  0  0  0  0  0  0
   -8.5046  -14.1249   12.0676 C   0  0  0  0  0  0  0  0  0  0  0  0
   -9.6950  -13.8313   12.1035 O   0  0  0  0  0  0  0  0  0  0  0  0
   -7.4448  -13.0785   12.3021 C   0  0  0  0  0  0  0  0  0  0  0  0
  1  2  1  0
  2  3  1  0
  3  4  1  0
  4  5  2  0
  4  6  1  0
  6  7  2  0
  6 10  1  0
  7  8  1  0
  8  9  1  0
  9 10  2  0
  9 11  1  0
 11 12  1  0
 12 13  2  0
 12 14  1  0
M  END
>  <Gold.Gold.Protein.RotatedWaterAtoms>  (558) 


>  <Gold.Id.Protein>  (558) 


>  <Gold.PLP.Chemscore.CHOScore>  (558) 
0.0000

>  <Gold.PLP.Chemscore.Hbond>  (558) 
2.0000

>  <Gold.PLP.Chemscore.Internal.Correction>  (558) 
0.0053

>  <Gold.PLP.Chemscore.Metal>  (558) 
0.0000

>  <Gold.PLP.Fitness>  (558) 
36.8047

>  <Gold.PLP.PLP>  (558) 
-32.7996

>  <Gold.PLP.ligand.clash>  (558) 
0.0000

>  <Gold.PLP.ligand.torsion>  (558) 
1.0001

>  <Gold.PLP.part.buried>  (558) 
-6.5206

>  <Gold.PLP.part.hbond>  (558) 
-2.9156

>  <Gold.PLP.part.metal>  (558) 
0.0000

>  <Gold.PLP.part.nonpolar>  (558) 
-23.4080

>  <Gold.PLP.part.repulsive>  (558) 
0.3100

>  <Gold.Protein.RotatedAtoms>  (558) 


>  <Gold.Protein.RotatedTorsions>  (558) 


>  <Gold.Protein.RotatedWaterAtoms>  (558) 


>  <Gold.Version>  (558) 
5.3.0

>  <PLP.Chemscore.CHOScore>  (558) 


>  <PLP.Chemscore.Hbond>  (558) 


>  <PLP.Chemscore.Internal.Correction>  (558) 


>  <PLP.Chemscore.Metal>  (558) 


>  <PLP.Fitness>  (558) 


>  <PLP.PLP>  (558) 


>  <PLP.ligand.clash>  (558) 


>  <PLP.ligand.torsion>  (558) 


>  <PLP.part.buried>  (558) 


>  <PLP.part.hbond>  (558) 


>  <PLP.part.metal>  (558) 


>  <PLP.part.nonpolar>  (558) 


>  <PLP.part.repulsive>  (558) 


>  <RMSD>  (558) 
0.499949349045

>  <Torsion>  (558) 
159.973716791

>  <TorsionO>  (558) 
19.1052109979

>  <TorsionR>  (558) 
179.078927789

>  <Version>  (558) 


>  <product>  (558) 
4|Compound_3|Compounds_3D_F|sdf|2|dock2|1

>  <rmsd>  (558) 
-1

$$$$
1884|M3006_1781|Aromatic_primary_amines_F|sdf|361|dock3|1
     RDKit          3D

 31 34  0  0  0  0  0  0  0  0999 V2000
  -14.4210  -19.8971    8.7934 C   0  0  0  0  0  0  0  0  0  0  0  0
  -13.9762  -19.4927   10.1894 C   0  0  0  0  0  0  0  0  0  0  0  0
  -14.1356  -20.6409   11.1817 C   0  0  0  0  0  0  0  0  0  0  0  0
  -13.5197  -20.3070   12.5189 C   0  0  0  0  0  0  0  0  0  0  0  0
  -12.9307  -19.2724   12.7954 O   0  0  0  0  0  0  0  0  0  0  0  0
  -13.7110  -21.3451   13.3845 O   0  0  0  0  0  0  0  0  0  0  0  0
  -12.9425  -21.2698   14.5900 C   0  0  0  0  0  0  0  0  0  0  0  0
  -12.8849  -22.6189   15.2889 C   0  0  0  0  0  0  0  0  0  0  0  0
  -11.6552  -22.4172   16.1494 C   0  0  0  0  0  0  0  0  0  0  0  0
  -11.2420  -23.7410   16.7624 C   0  0  0  0  0  0  0  0  0  0  0  0
  -12.3024  -24.2223   17.5862 O   0  0  0  0  0  0  0  0  0  0  0  0
  -13.7888  -24.3384   16.9603 P   0  0  0  0  0  0  0  0  0  0  0  0
  -14.8775  -24.6795   17.9243 O   0  0  0  0  0  0  0  0  0  0  0  0
  -13.9839  -22.9641   16.1174 O   0  0  0  0  0  0  0  0  0  0  0  0
  -13.5991  -25.4435   15.8075 O   0  0  0  0  0  0  0  0  0  0  0  0
  -10.6922  -21.8161   15.2889 O   0  0  0  0  0  0  0  0  0  0  0  0
  -11.4338  -20.9664   14.3653 C   0  0  0  0  0  0  0  0  0  0  0  0
  -10.9052  -21.2017   13.0342 N   0  0  0  0  0  0  0  0  0  0  0  0
  -10.7814  -22.4114   12.4013 C   0  0  0  0  0  0  0  0  0  0  0  0
  -10.2640  -22.2918   11.1953 N   0  0  0  0  0  0  0  0  0  0  0  0
  -10.0274  -20.9476   11.0424 C   0  0  0  0  0  0  0  0  0  0  0  0
  -10.4203  -20.2487   12.1733 C   0  0  0  0  0  0  0  0  0  0  0  0
  -10.3338  -18.9216   12.3641 N   0  0  0  0  0  0  0  0  0  0  0  0
   -9.8057  -18.2730   11.3024 C   0  0  0  0  0  0  0  0  0  0  0  0
   -9.3808  -18.8370   10.1545 N   0  0  0  0  0  0  0  0  0  0  0  0
   -9.4895  -20.1691   10.0244 C   0  0  0  0  0  0  0  0  0  0  0  0
   -9.0330  -20.6622    8.8349 O   0  0  0  0  0  0  0  0  0  0  0  0
   -9.7222  -16.8901   11.4793 N   0  0  0  0  0  0  0  0  0  0  0  0
   -8.5796  -16.1798   11.7761 C   0  0  0  0  0  0  0  0  0  0  0  0
   -7.4445  -16.6221   11.9131 O   0  0  0  0  0  0  0  0  0  0  0  0
   -8.8524  -14.7024   11.8973 C   0  0  0  0  0  0  0  0  0  0  0  0
  1  2  1  0
  2  3  1  0
  3  4  1  0
  4  5  2  0
  4  6  1  0
  6  7  1  0
  7  8  1  0
  7 17  1  0
  8  9  1  0
  8 14  1  0
  9 10  1  0
  9 16  1  0
 10 11  1  0
 11 12  1  0
 12 13  2  0
 12 14  1  0
 12 15  1  0
 16 17  1  0
 17 18  1  0
 18 19  1  0
 18 22  1  0
 19 20  2  0
 20 21  1  0
 21 22  2  0
 21 26  1  0
 22 23  1  0
 23 24  2  0
 24 25  1  0
 24 28  1  0
 25 26  2  0
 26 27  1  0
 28 29  1  0
 29 30  2  0
 29 31  1  0
M  END
>  <Gold.Gold.Protein.RotatedWaterAtoms>  (559) 


>  <Gold.Id.Protein>  (559) 


>  <Gold.PLP.Chemscore.CHOScore>  (559) 
0.0000

>  <Gold.PLP.Chemscore.Hbond>  (559) 
1.2080

>  <Gold.PLP.Chemscore.Internal.Correction>  (559) 
0.1232

>  <Gold.PLP.Chemscore.Metal>  (559) 
0.0000

>  <Gold.PLP.Fitness>  (559) 
47.7145

>  <Gold.PLP.PLP>  (559) 
-46.0218

>  <Gold.PLP.ligand.clash>  (559) 
0.0000

>  <Gold.PLP.ligand.torsion>  (559) 
1.0272

>  <Gold.PLP.part.buried>  (559) 
-2.2958

>  <Gold.PLP.part.hbond>  (559) 
-4.0214

>  <Gold.PLP.part.metal>  (559) 
0.0000

>  <Gold.PLP.part.nonpolar>  (559) 
-41.4699

>  <Gold.PLP.part.repulsive>  (559) 
0.9524

>  <Gold.Protein.RotatedAtoms>  (559) 


>  <Gold.Protein.RotatedTorsions>  (559) 


>  <Gold.Protein.RotatedWaterAtoms>  (559) 


>  <Gold.Version>  (559) 
5.3.0

>  <PLP.Chemscore.CHOScore>  (559) 


>  <PLP.Chemscore.Hbond>  (559) 


>  <PLP.Chemscore.Internal.Correction>  (559) 


>  <PLP.Chemscore.Metal>  (559) 


>  <PLP.Fitness>  (559) 


>  <PLP.PLP>  (559) 


>  <PLP.ligand.clash>  (559) 


>  <PLP.ligand.torsion>  (559) 


>  <PLP.part.buried>  (559) 


>  <PLP.part.hbond>  (559) 


>  <PLP.part.metal>  (559) 


>  <PLP.part.nonpolar>  (559) 


>  <PLP.part.repulsive>  (559) 


>  <RMSD>  (559) 
0.291955871297

>  <Torsion>  (559) 
171.923704933

>  <TorsionO>  (559) 
6.03609353985

>  <TorsionR>  (559) 
177.959798473

>  <Version>  (559) 


>  <product>  (559) 
4|Compound_3|Compounds_3D_F|sdf|2|dock2|1

>  <rmsd>  (559) 
-1

$$$$
193|32168_281|Aromatic_primary_amines_F|sdf|39|dock6|1
     RDKit          3D

 23 25  0  0  0  0  0  0  0  0999 V2000
   -7.8439  -12.1461   11.8919 C   0  0  0  0  0  0  0  0  0  0  0  0
   -8.5691  -13.4472   11.6781 C   0  0  0  0  0  0  0  0  0  0  0  0
   -9.7886  -13.4981   11.5208 O   0  0  0  0  0  0  0  0  0  0  0  0
   -7.7264  -14.5390   11.7020 N   0  0  0  0  0  0  0  0  0  0  0  0
   -8.1889  -15.8197   11.5323 C   0  0  0  0  0  0  0  0  0  0  0  0
   -9.4747  -16.2039   11.8163 N   0  0  0  0  0  0  0  0  0  0  0  0
   -9.5964  -17.5375   11.5379 C   0  0  0  0  0  0  0  0  0  0  0  0
  -10.6643  -18.4283   11.6415 C   0  0  0  0  0  0  0  0  0  0  0  0
  -10.4051  -19.7586   11.2778 C   0  0  0  0  0  0  0  0  0  0  0  0
   -9.1530  -20.1507   10.7795 C   0  0  0  0  0  0  0  0  0  0  0  0
   -8.1017  -19.2294   10.6839 C   0  0  0  0  0  0  0  0  0  0  0  0
   -8.3349  -17.9032   11.0783 C   0  0  0  0  0  0  0  0  0  0  0  0
   -7.4773  -16.8281   11.0838 N   0  0  0  0  0  0  0  0  0  0  0  0
   -8.8530  -21.7658   10.2429 Cl  0  0  0  0  0  0  0  0  0  0  0  0
  -11.4669  -20.6323   11.3734 O   0  0  0  0  0  0  0  0  0  0  0  0
  -12.5262  -20.4408   10.5053 C   0  0  0  0  0  0  0  0  0  0  0  0
  -13.3188  -19.2846   10.5304 C   0  0  0  0  0  0  0  0  0  0  0  0
  -14.3665  -19.1344    9.6224 C   0  0  0  0  0  0  0  0  0  0  0  0
  -14.6219  -20.1279    8.6796 C   0  0  0  0  0  0  0  0  0  0  0  0
  -13.8238  -21.2756    8.6345 C   0  0  0  0  0  0  0  0  0  0  0  0
  -12.7674  -21.4342    9.5416 C   0  0  0  0  0  0  0  0  0  0  0  0
  -11.7588  -22.8458    9.4996 Cl  0  0  0  0  0  0  0  0  0  0  0  0
  -14.1988  -22.4584    7.4296 Cl  0  0  0  0  0  0  0  0  0  0  0  0
  1  2  1  0
  2  3  2  0
  2  4  1  0
  4  5  1  0
  5  6  1  0
  5 13  2  0
  6  7  1  0
  7  8  2  0
  7 12  1  0
  8  9  1  0
  9 10  2  0
  9 15  1  0
 10 11  1  0
 10 14  1  0
 11 12  2  0
 12 13  1  0
 15 16  1  0
 16 17  2  0
 16 21  1  0
 17 18  1  0
 18 19  2  0
 19 20  1  0
 20 21  2  0
 20 23  1  0
 21 22  1  0
M  END
>  <Gold.Gold.Protein.RotatedWaterAtoms>  (560) 


>  <Gold.Id.Protein>  (560) 


>  <Gold.PLP.Chemscore.CHOScore>  (560) 
0.0000

>  <Gold.PLP.Chemscore.Hbond>  (560) 
1.0000

>  <Gold.PLP.Chemscore.Internal.Correction>  (560) 
0.0086

>  <Gold.PLP.Chemscore.Metal>  (560) 
0.0000

>  <Gold.PLP.Fitness>  (560) 
50.7139

>  <Gold.PLP.PLP>  (560) 
-48.1706

>  <Gold.PLP.ligand.clash>  (560) 
0.0000

>  <Gold.PLP.ligand.torsion>  (560) 
0.2327

>  <Gold.PLP.part.buried>  (560) 
-6.5205

>  <Gold.PLP.part.hbond>  (560) 
-2.0000

>  <Gold.PLP.part.metal>  (560) 
0.0000

>  <Gold.PLP.part.nonpolar>  (560) 
-39.3857

>  <Gold.PLP.part.repulsive>  (560) 
0.3298

>  <Gold.Protein.RotatedAtoms>  (560) 


>  <Gold.Protein.RotatedTorsions>  (560) 


>  <Gold.Protein.RotatedWaterAtoms>  (560) 


>  <Gold.Version>  (560) 
5.3.0

>  <PLP.Chemscore.CHOScore>  (560) 


>  <PLP.Chemscore.Hbond>  (560) 


>  <PLP.Chemscore.Internal.Correction>  (560) 


>  <PLP.Chemscore.Metal>  (560) 


>  <PLP.Fitness>  (560) 


>  <PLP.PLP>  (560) 


>  <PLP.ligand.clash>  (560) 


>  <PLP.ligand.torsion>  (560) 


>  <PLP.part.buried>  (560) 


>  <PLP.part.hbond>  (560) 


>  <PLP.part.metal>  (560) 


>  <PLP.part.nonpolar>  (560) 


>  <PLP.part.repulsive>  (560) 


>  <RMSD>  (560) 
0.439733510035

>  <Torsion>  (560) 
177.672185574

>  <TorsionO>  (560) 
4.31728583372

>  <TorsionR>  (560) 
173.35489974

>  <Version>  (560) 


>  <product>  (560) 
4|Compound_3|Compounds_3D_F|sdf|2|dock2|1

>  <rmsd>  (560) 
-1

$$$$
82|Compound_31|Compounds_3D_F|sdf|13|dock8|1
     RDKit          3D

 10  9  0  0  0  0  0  0  0  0999 V2000
   -4.5345  -12.2866   13.3615 O   0  0  0  0  0  0  0  0  0  0  0  0
   -5.5004  -12.6388   12.4997 C   0  0  0  0  0  0  0  0  0  0  0  0
   -6.1382  -11.7879   11.9246 O   0  0  0  0  0  0  0  0  0  0  0  0
   -5.7917  -14.0960   12.2483 C   0  0  0  0  0  0  0  0  0  0  0  0
   -4.6341  -14.7257   11.6963 O   0  0  0  0  0  0  0  0  0  0  0  0
   -6.9577  -14.2208   11.2653 C   0  0  0  0  0  0  0  0  0  0  0  0
   -7.0808  -15.6142   10.8281 N   0  0  0  0  0  0  0  0  0  0  0  0
   -6.6182  -15.9845    9.6178 C   0  0  0  0  0  0  0  0  0  0  0  0
   -6.1003  -15.1639    8.8906 O   0  0  0  0  0  0  0  0  0  0  0  0
   -6.7496  -17.4771    9.1502 B   0  0  0  0  0  0  0  0  0  0  0  0
  1  2  1  0
  2  3  2  0
  2  4  1  0
  4  5  1  0
  4  6  1  0
  6  7  1  0
  7  8  1  0
  8  9  2  0
  8 10  1  0
M  END
>  <Gold.Gold.Protein.RotatedWaterAtoms>  (561) 


>  <Gold.Id.Protein>  (561) 


>  <Gold.PLP.Chemscore.CHOScore>  (561) 
0.0000

>  <Gold.PLP.Chemscore.Hbond>  (561) 
2.8160

>  <Gold.PLP.Chemscore.Internal.Correction>  (561) 
0.0004

>  <Gold.PLP.Chemscore.Metal>  (561) 
0.0000

>  <Gold.PLP.Fitness>  (561) 
32.6782

>  <Gold.PLP.PLP>  (561) 
-24.5936

>  <Gold.PLP.ligand.clash>  (561) 
0.0000

>  <Gold.PLP.ligand.torsion>  (561) 
0.1819

>  <Gold.PLP.part.buried>  (561) 
-5.9830

>  <Gold.PLP.part.hbond>  (561) 
-6.5145

>  <Gold.PLP.part.metal>  (561) 
0.0000

>  <Gold.PLP.part.nonpolar>  (561) 
-12.7098

>  <Gold.PLP.part.repulsive>  (561) 
0.4898

>  <Gold.Protein.RotatedAtoms>  (561) 


>  <Gold.Protein.RotatedTorsions>  (561) 


>  <Gold.Protein.RotatedWaterAtoms>  (561) 


>  <Gold.Version>  (561) 
5.3.0

>  <PLP.Chemscore.CHOScore>  (561) 


>  <PLP.Chemscore.Hbond>  (561) 


>  <PLP.Chemscore.Internal.Correction>  (561) 


>  <PLP.Chemscore.Metal>  (561) 


>  <PLP.Fitness>  (561) 


>  <PLP.PLP>  (561) 


>  <PLP.ligand.clash>  (561) 


>  <PLP.ligand.torsion>  (561) 


>  <PLP.part.buried>  (561) 


>  <PLP.part.hbond>  (561) 


>  <PLP.part.metal>  (561) 


>  <PLP.part.nonpolar>  (561) 


>  <PLP.part.repulsive>  (561) 


>  <Version>  (561) 


$$$$
94|664022_40|Aromatic_carboxylic_acids_F|sdf|24|dock1|1
     RDKit          3D

 12 12  0  0  0  0  0  0  0  0999 V2000
   -8.2596  -17.1212   11.4595 C   0  0  0  0  0  0  0  0  0  0  0  0
   -7.6366  -15.8367   11.6688 N   0  0  0  0  0  0  0  0  0  0  0  0
   -8.3409  -14.6553   11.5719 C   0  0  0  0  0  0  0  0  0  0  0  0
   -9.5296  -14.5547   11.2978 O   0  0  0  0  0  0  0  0  0  0  0  0
   -7.5420  -13.4431   11.8503 C   0  0  0  0  0  0  0  0  0  0  0  0
   -8.1627  -12.1983   11.6738 C   0  0  0  0  0  0  0  0  0  0  0  0
   -7.4390  -11.0301   11.9055 C   0  0  0  0  0  0  0  0  0  0  0  0
   -6.1069  -11.0910   12.3103 C   0  0  0  0  0  0  0  0  0  0  0  0
   -5.4897  -12.3324   12.4853 C   0  0  0  0  0  0  0  0  0  0  0  0
   -6.2035  -13.5136   12.2549 C   0  0  0  0  0  0  0  0  0  0  0  0
   -5.3062  -15.1564   12.5638 Br  0  0  0  0  0  0  0  0  0  0  0  0
   -8.1960   -9.5005   11.6887 Cl  0  0  0  0  0  0  0  0  0  0  0  0
  1  2  1  0
  2  3  1  0
  3  4  2  0
  3  5  1  0
  5  6  2  0
  5 10  1  0
  6  7  1  0
  7  8  2  0
  7 12  1  0
  8  9  1  0
  9 10  2  0
 10 11  1  0
M  END
>  <Gold.Gold.Protein.RotatedWaterAtoms>  (562) 


>  <Gold.Id.Protein>  (562) 


>  <Gold.PLP.Chemscore.CHOScore>  (562) 
0.0000

>  <Gold.PLP.Chemscore.Hbond>  (562) 
0.4160

>  <Gold.PLP.Chemscore.Internal.Correction>  (562) 
0.0004

>  <Gold.PLP.Chemscore.Metal>  (562) 
0.0000

>  <Gold.PLP.Fitness>  (562) 
48.9046

>  <Gold.PLP.PLP>  (562) 
-47.6744

>  <Gold.PLP.ligand.clash>  (562) 
0.0000

>  <Gold.PLP.ligand.torsion>  (562) 
0.0091

>  <Gold.PLP.part.buried>  (562) 
-7.3578

>  <Gold.PLP.part.hbond>  (562) 
-0.5127

>  <Gold.PLP.part.metal>  (562) 
0.0000

>  <Gold.PLP.part.nonpolar>  (562) 
-40.3098

>  <Gold.PLP.part.repulsive>  (562) 
0.1684

>  <Gold.Protein.RotatedAtoms>  (562) 


>  <Gold.Protein.RotatedTorsions>  (562) 


>  <Gold.Protein.RotatedWaterAtoms>  (562) 


>  <Gold.Version>  (562) 
5.3.0

>  <PLP.Chemscore.CHOScore>  (562) 


>  <PLP.Chemscore.Hbond>  (562) 


>  <PLP.Chemscore.Internal.Correction>  (562) 


>  <PLP.Chemscore.Metal>  (562) 


>  <PLP.Fitness>  (562) 


>  <PLP.PLP>  (562) 


>  <PLP.ligand.clash>  (562) 


>  <PLP.ligand.torsion>  (562) 


>  <PLP.part.buried>  (562) 


>  <PLP.part.hbond>  (562) 


>  <PLP.part.metal>  (562) 


>  <PLP.part.nonpolar>  (562) 


>  <PLP.part.repulsive>  (562) 


>  <RMSD>  (562) 
0.30972197429

>  <Torsion>  (562) 
172.929186758

>  <TorsionO>  (562) 
24.4968065243

>  <TorsionR>  (562) 
162.574006718

>  <Version>  (562) 


>  <product>  (562) 
82|Compound_31|Compounds_3D_F|sdf|13|dock8|1

>  <rmsd>  (562) 
-1

$$$$
110|565385_49|Aromatic_carboxylic_acids_F|sdf|29|dock1|1
     RDKit          3D

 13 13  0  0  0  0  0  0  0  0999 V2000
  -10.1118  -17.9021   11.6320 C   0  0  0  0  0  0  0  0  0  0  0  0
   -9.7537  -16.5043   11.6546 N   0  0  0  0  0  0  0  0  0  0  0  0
   -8.4330  -16.1187   11.7930 C   0  0  0  0  0  0  0  0  0  0  0  0
   -7.5159  -16.9298   11.9008 O   0  0  0  0  0  0  0  0  0  0  0  0
   -8.1234  -14.6552   11.8105 C   0  0  0  0  0  0  0  0  0  0  0  0
   -9.0636  -13.6551   11.5375 C   0  0  0  0  0  0  0  0  0  0  0  0
   -8.6966  -12.3009   11.5726 C   0  0  0  0  0  0  0  0  0  0  0  0
   -7.3879  -11.9195   11.8809 C   0  0  0  0  0  0  0  0  0  0  0  0
   -6.4486  -12.9235   12.1551 C   0  0  0  0  0  0  0  0  0  0  0  0
   -6.8098  -14.2750   12.1207 C   0  0  0  0  0  0  0  0  0  0  0  0
   -4.6444  -12.5025   12.5849 Br  0  0  0  0  0  0  0  0  0  0  0  0
   -6.9476  -10.6242   11.9372 O   0  0  0  0  0  0  0  0  0  0  0  0
   -7.9020   -9.5910   11.7256 C   0  0  0  0  0  0  0  0  0  0  0  0
  1  2  1  0
  2  3  1  0
  3  4  2  0
  3  5  1  0
  5  6  2  0
  5 10  1  0
  6  7  1  0
  7  8  2  0
  8  9  1  0
  8 12  1  0
  9 10  2  0
  9 11  1  0
 12 13  1  0
M  END
>  <Gold.Gold.Protein.RotatedWaterAtoms>  (563) 


>  <Gold.Id.Protein>  (563) 


>  <Gold.PLP.Chemscore.CHOScore>  (563) 
0.0000

>  <Gold.PLP.Chemscore.Hbond>  (563) 
1.0000

>  <Gold.PLP.Chemscore.Internal.Correction>  (563) 
0.0000

>  <Gold.PLP.Chemscore.Metal>  (563) 
0.0000

>  <Gold.PLP.Fitness>  (563) 
43.9775

>  <Gold.PLP.PLP>  (563) 
-41.0517

>  <Gold.PLP.ligand.clash>  (563) 
0.0000

>  <Gold.PLP.ligand.torsion>  (563) 
0.0371

>  <Gold.PLP.part.buried>  (563) 
-3.7367

>  <Gold.PLP.part.hbond>  (563) 
-1.0000

>  <Gold.PLP.part.metal>  (563) 
0.0000

>  <Gold.PLP.part.nonpolar>  (563) 
-36.7483

>  <Gold.PLP.part.repulsive>  (563) 
0.4054

>  <Gold.Protein.RotatedAtoms>  (563) 


>  <Gold.Protein.RotatedTorsions>  (563) 


>  <Gold.Protein.RotatedWaterAtoms>  (563) 


>  <Gold.Version>  (563) 
5.3.0

>  <PLP.Chemscore.CHOScore>  (563) 


>  <PLP.Chemscore.Hbond>  (563) 


>  <PLP.Chemscore.Internal.Correction>  (563) 


>  <PLP.Chemscore.Metal>  (563) 


>  <PLP.Fitness>  (563) 


>  <PLP.PLP>  (563) 


>  <PLP.ligand.clash>  (563) 


>  <PLP.ligand.torsion>  (563) 


>  <PLP.part.buried>  (563) 


>  <PLP.part.hbond>  (563) 


>  <PLP.part.metal>  (563) 


>  <PLP.part.nonpolar>  (563) 


>  <PLP.part.repulsive>  (563) 


>  <RMSD>  (563) 
0.319376411377

>  <Torsion>  (563) 
169.460450784

>  <TorsionO>  (563) 
9.7963905484

>  <TorsionR>  (563) 
179.256841332

>  <Version>  (563) 


>  <product>  (563) 
82|Compound_31|Compounds_3D_F|sdf|13|dock8|1

>  <rmsd>  (563) 
-1

$$$$
128|137677_56|Aromatic_carboxylic_acids_F|sdf|33|dock1|1
     RDKit          3D

 11 11  0  0  0  0  0  0  0  0999 V2000
   -8.6116  -16.1544   11.8887 C   0  0  0  0  0  0  0  0  0  0  0  0
   -7.9978  -14.8484   11.9215 N   0  0  0  0  0  0  0  0  0  0  0  0
   -8.7778  -13.7008   11.8756 C   0  0  0  0  0  0  0  0  0  0  0  0
  -10.0002  -13.7896   11.8139 O   0  0  0  0  0  0  0  0  0  0  0  0
   -8.0808  -12.3609   11.9017 C   0  0  0  0  0  0  0  0  0  0  0  0
   -8.7916  -11.1851   11.5813 C   0  0  0  0  0  0  0  0  0  0  0  0
   -8.1781   -9.9267   11.5989 C   0  0  0  0  0  0  0  0  0  0  0  0
   -6.8391   -9.8089   11.9369 C   0  0  0  0  0  0  0  0  0  0  0  0
   -6.1124  -10.9502   12.2575 C   0  0  0  0  0  0  0  0  0  0  0  0
   -6.7171  -12.2196   12.2428 C   0  0  0  0  0  0  0  0  0  0  0  0
   -5.5419  -13.6455   12.7121 Br  0  0  0  0  0  0  0  0  0  0  0  0
  1  2  1  0
  2  3  1  0
  3  4  2  0
  3  5  1  0
  5  6  2  0
  5 10  1  0
  6  7  1  0
  7  8  2  0
  8  9  1  0
  9 10  2  0
 10 11  1  0
M  END
>  <Gold.Gold.Protein.RotatedWaterAtoms>  (564) 


>  <Gold.Id.Protein>  (564) 


>  <Gold.PLP.Chemscore.CHOScore>  (564) 
0.0000

>  <Gold.PLP.Chemscore.Hbond>  (564) 
1.0000

>  <Gold.PLP.Chemscore.Internal.Correction>  (564) 
0.0000

>  <Gold.PLP.Chemscore.Metal>  (564) 
0.0000

>  <Gold.PLP.Fitness>  (564) 
45.2899

>  <Gold.PLP.PLP>  (564) 
-42.4444

>  <Gold.PLP.ligand.clash>  (564) 
0.0000

>  <Gold.PLP.ligand.torsion>  (564) 
0.0772

>  <Gold.PLP.part.buried>  (564) 
-6.4690

>  <Gold.PLP.part.hbond>  (564) 
-0.6863

>  <Gold.PLP.part.metal>  (564) 
0.0000

>  <Gold.PLP.part.nonpolar>  (564) 
-34.8280

>  <Gold.PLP.part.repulsive>  (564) 
0.1963

>  <Gold.Protein.RotatedAtoms>  (564) 


>  <Gold.Protein.RotatedTorsions>  (564) 


>  <Gold.Protein.RotatedWaterAtoms>  (564) 


>  <Gold.Version>  (564) 
5.3.0

>  <PLP.Chemscore.CHOScore>  (564) 


>  <PLP.Chemscore.Hbond>  (564) 


>  <PLP.Chemscore.Internal.Correction>  (564) 


>  <PLP.Chemscore.Metal>  (564) 


>  <PLP.Fitness>  (564) 


>  <PLP.PLP>  (564) 


>  <PLP.ligand.clash>  (564) 


>  <PLP.ligand.torsion>  (564) 


>  <PLP.part.buried>  (564) 


>  <PLP.part.hbond>  (564) 


>  <PLP.part.metal>  (564) 


>  <PLP.part.nonpolar>  (564) 


>  <PLP.part.repulsive>  (564) 


>  <RMSD>  (564) 
0.428070490903

>  <Torsion>  (564) 
152.444048788

>  <TorsionO>  (564) 
39.0580871276

>  <TorsionR>  (564) 
168.497864085

>  <Version>  (564) 


>  <product>  (564) 
82|Compound_31|Compounds_3D_F|sdf|13|dock8|1

>  <rmsd>  (564) 
-1

$$$$
974|750794_1404|Aromatic_primary_amines_F|sdf|194|dock3|1
     RDKit          3D

 14 14  0  0  0  0  0  0  0  0999 V2000
  -13.6355  -18.1936    9.4145 C   0  0  0  0  0  0  0  0  0  0  0  0
  -13.2544  -19.4497   10.1732 C   0  0  0  0  0  0  0  0  0  0  0  0
  -11.8731  -19.3506   10.5383 O   0  0  0  0  0  0  0  0  0  0  0  0
  -11.6148  -18.5085   11.5823 C   0  0  0  0  0  0  0  0  0  0  0  0
  -12.3947  -18.2810   12.5004 O   0  0  0  0  0  0  0  0  0  0  0  0
  -10.3031  -17.8985   11.4902 C   0  0  0  0  0  0  0  0  0  0  0  0
   -9.1673  -18.4974   10.9931 C   0  0  0  0  0  0  0  0  0  0  0  0
   -8.1448  -17.6055   11.0758 O   0  0  0  0  0  0  0  0  0  0  0  0
   -8.7110  -16.4917   11.6237 C   0  0  0  0  0  0  0  0  0  0  0  0
   -9.9933  -16.6110   11.8915 N   0  0  0  0  0  0  0  0  0  0  0  0
   -7.9611  -15.3718   11.8549 N   0  0  0  0  0  0  0  0  0  0  0  0
   -8.5046  -14.1249   12.0676 C   0  0  0  0  0  0  0  0  0  0  0  0
   -9.6950  -13.8313   12.1035 O   0  0  0  0  0  0  0  0  0  0  0  0
   -7.4448  -13.0785   12.3021 C   0  0  0  0  0  0  0  0  0  0  0  0
  1  2  1  0
  2  3  1  0
  3  4  1  0
  4  5  2  0
  4  6  1  0
  6  7  2  0
  6 10  1  0
  7  8  1  0
  8  9  1  0
  9 10  2  0
  9 11  1  0
 11 12  1  0
 12 13  2  0
 12 14  1  0
M  END
>  <Gold.Gold.Protein.RotatedWaterAtoms>  (565) 


>  <Gold.Id.Protein>  (565) 


>  <Gold.PLP.Chemscore.CHOScore>  (565) 
0.0000

>  <Gold.PLP.Chemscore.Hbond>  (565) 
2.0000

>  <Gold.PLP.Chemscore.Internal.Correction>  (565) 
0.0053

>  <Gold.PLP.Chemscore.Metal>  (565) 
0.0000

>  <Gold.PLP.Fitness>  (565) 
36.8047

>  <Gold.PLP.PLP>  (565) 
-32.7996

>  <Gold.PLP.ligand.clash>  (565) 
0.0000

>  <Gold.PLP.ligand.torsion>  (565) 
1.0001

>  <Gold.PLP.part.buried>  (565) 
-6.5206

>  <Gold.PLP.part.hbond>  (565) 
-2.9156

>  <Gold.PLP.part.metal>  (565) 
0.0000

>  <Gold.PLP.part.nonpolar>  (565) 
-23.4080

>  <Gold.PLP.part.repulsive>  (565) 
0.3100

>  <Gold.Protein.RotatedAtoms>  (565) 


>  <Gold.Protein.RotatedTorsions>  (565) 


>  <Gold.Protein.RotatedWaterAtoms>  (565) 


>  <Gold.Version>  (565) 
5.3.0

>  <PLP.Chemscore.CHOScore>  (565) 


>  <PLP.Chemscore.Hbond>  (565) 


>  <PLP.Chemscore.Internal.Correction>  (565) 


>  <PLP.Chemscore.Metal>  (565) 


>  <PLP.Fitness>  (565) 


>  <PLP.PLP>  (565) 


>  <PLP.ligand.clash>  (565) 


>  <PLP.ligand.torsion>  (565) 


>  <PLP.part.buried>  (565) 


>  <PLP.part.hbond>  (565) 


>  <PLP.part.metal>  (565) 


>  <PLP.part.nonpolar>  (565) 


>  <PLP.part.repulsive>  (565) 


>  <RMSD>  (565) 
0.499949349045

>  <Torsion>  (565) 
159.973716791

>  <TorsionO>  (565) 
19.1052109979

>  <TorsionR>  (565) 
179.078927789

>  <Version>  (565) 


>  <product>  (565) 
82|Compound_31|Compounds_3D_F|sdf|13|dock8|1

>  <rmsd>  (565) 
-1

$$$$
1884|M3006_1781|Aromatic_primary_amines_F|sdf|361|dock3|1
     RDKit          3D

 31 34  0  0  0  0  0  0  0  0999 V2000
  -14.4210  -19.8971    8.7934 C   0  0  0  0  0  0  0  0  0  0  0  0
  -13.9762  -19.4927   10.1894 C   0  0  0  0  0  0  0  0  0  0  0  0
  -14.1356  -20.6409   11.1817 C   0  0  0  0  0  0  0  0  0  0  0  0
  -13.5197  -20.3070   12.5189 C   0  0  0  0  0  0  0  0  0  0  0  0
  -12.9307  -19.2724   12.7954 O   0  0  0  0  0  0  0  0  0  0  0  0
  -13.7110  -21.3451   13.3845 O   0  0  0  0  0  0  0  0  0  0  0  0
  -12.9425  -21.2698   14.5900 C   0  0  0  0  0  0  0  0  0  0  0  0
  -12.8849  -22.6189   15.2889 C   0  0  0  0  0  0  0  0  0  0  0  0
  -11.6552  -22.4172   16.1494 C   0  0  0  0  0  0  0  0  0  0  0  0
  -11.2420  -23.7410   16.7624 C   0  0  0  0  0  0  0  0  0  0  0  0
  -12.3024  -24.2223   17.5862 O   0  0  0  0  0  0  0  0  0  0  0  0
  -13.7888  -24.3384   16.9603 P   0  0  0  0  0  0  0  0  0  0  0  0
  -14.8775  -24.6795   17.9243 O   0  0  0  0  0  0  0  0  0  0  0  0
  -13.9839  -22.9641   16.1174 O   0  0  0  0  0  0  0  0  0  0  0  0
  -13.5991  -25.4435   15.8075 O   0  0  0  0  0  0  0  0  0  0  0  0
  -10.6922  -21.8161   15.2889 O   0  0  0  0  0  0  0  0  0  0  0  0
  -11.4338  -20.9664   14.3653 C   0  0  0  0  0  0  0  0  0  0  0  0
  -10.9052  -21.2017   13.0342 N   0  0  0  0  0  0  0  0  0  0  0  0
  -10.7814  -22.4114   12.4013 C   0  0  0  0  0  0  0  0  0  0  0  0
  -10.2640  -22.2918   11.1953 N   0  0  0  0  0  0  0  0  0  0  0  0
  -10.0274  -20.9476   11.0424 C   0  0  0  0  0  0  0  0  0  0  0  0
  -10.4203  -20.2487   12.1733 C   0  0  0  0  0  0  0  0  0  0  0  0
  -10.3338  -18.9216   12.3641 N   0  0  0  0  0  0  0  0  0  0  0  0
   -9.8057  -18.2730   11.3024 C   0  0  0  0  0  0  0  0  0  0  0  0
   -9.3808  -18.8370   10.1545 N   0  0  0  0  0  0  0  0  0  0  0  0
   -9.4895  -20.1691   10.0244 C   0  0  0  0  0  0  0  0  0  0  0  0
   -9.0330  -20.6622    8.8349 O   0  0  0  0  0  0  0  0  0  0  0  0
   -9.7222  -16.8901   11.4793 N   0  0  0  0  0  0  0  0  0  0  0  0
   -8.5796  -16.1798   11.7761 C   0  0  0  0  0  0  0  0  0  0  0  0
   -7.4445  -16.6221   11.9131 O   0  0  0  0  0  0  0  0  0  0  0  0
   -8.8524  -14.7024   11.8973 C   0  0  0  0  0  0  0  0  0  0  0  0
  1  2  1  0
  2  3  1  0
  3  4  1  0
  4  5  2  0
  4  6  1  0
  6  7  1  0
  7  8  1  0
  7 17  1  0
  8  9  1  0
  8 14  1  0
  9 10  1  0
  9 16  1  0
 10 11  1  0
 11 12  1  0
 12 13  2  0
 12 14  1  0
 12 15  1  0
 16 17  1  0
 17 18  1  0
 18 19  1  0
 18 22  1  0
 19 20  2  0
 20 21  1  0
 21 22  2  0
 21 26  1  0
 22 23  1  0
 23 24  2  0
 24 25  1  0
 24 28  1  0
 25 26  2  0
 26 27  1  0
 28 29  1  0
 29 30  2  0
 29 31  1  0
M  END
>  <Gold.Gold.Protein.RotatedWaterAtoms>  (566) 


>  <Gold.Id.Protein>  (566) 


>  <Gold.PLP.Chemscore.CHOScore>  (566) 
0.0000

>  <Gold.PLP.Chemscore.Hbond>  (566) 
1.2080

>  <Gold.PLP.Chemscore.Internal.Correction>  (566) 
0.1232

>  <Gold.PLP.Chemscore.Metal>  (566) 
0.0000

>  <Gold.PLP.Fitness>  (566) 
47.7145

>  <Gold.PLP.PLP>  (566) 
-46.0218

>  <Gold.PLP.ligand.clash>  (566) 
0.0000

>  <Gold.PLP.ligand.torsion>  (566) 
1.0272

>  <Gold.PLP.part.buried>  (566) 
-2.2958

>  <Gold.PLP.part.hbond>  (566) 
-4.0214

>  <Gold.PLP.part.metal>  (566) 
0.0000

>  <Gold.PLP.part.nonpolar>  (566) 
-41.4699

>  <Gold.PLP.part.repulsive>  (566) 
0.9524

>  <Gold.Protein.RotatedAtoms>  (566) 


>  <Gold.Protein.RotatedTorsions>  (566) 


>  <Gold.Protein.RotatedWaterAtoms>  (566) 


>  <Gold.Version>  (566) 
5.3.0

>  <PLP.Chemscore.CHOScore>  (566) 


>  <PLP.Chemscore.Hbond>  (566) 


>  <PLP.Chemscore.Internal.Correction>  (566) 


>  <PLP.Chemscore.Metal>  (566) 


>  <PLP.Fitness>  (566) 


>  <PLP.PLP>  (566) 


>  <PLP.ligand.clash>  (566) 


>  <PLP.ligand.torsion>  (566) 


>  <PLP.part.buried>  (566) 


>  <PLP.part.hbond>  (566) 


>  <PLP.part.metal>  (566) 


>  <PLP.part.nonpolar>  (566) 


>  <PLP.part.repulsive>  (566) 


>  <RMSD>  (566) 
0.291955871297

>  <Torsion>  (566) 
171.923704933

>  <TorsionO>  (566) 
6.03609353985

>  <TorsionR>  (566) 
177.959798473

>  <Version>  (566) 


>  <product>  (566) 
82|Compound_31|Compounds_3D_F|sdf|13|dock8|1

>  <rmsd>  (566) 
-1

$$$$
193|32168_281|Aromatic_primary_amines_F|sdf|39|dock6|1
     RDKit          3D

 23 25  0  0  0  0  0  0  0  0999 V2000
   -7.8439  -12.1461   11.8919 C   0  0  0  0  0  0  0  0  0  0  0  0
   -8.5691  -13.4472   11.6781 C   0  0  0  0  0  0  0  0  0  0  0  0
   -9.7886  -13.4981   11.5208 O   0  0  0  0  0  0  0  0  0  0  0  0
   -7.7264  -14.5390   11.7020 N   0  0  0  0  0  0  0  0  0  0  0  0
   -8.1889  -15.8197   11.5323 C   0  0  0  0  0  0  0  0  0  0  0  0
   -9.4747  -16.2039   11.8163 N   0  0  0  0  0  0  0  0  0  0  0  0
   -9.5964  -17.5375   11.5379 C   0  0  0  0  0  0  0  0  0  0  0  0
  -10.6643  -18.4283   11.6415 C   0  0  0  0  0  0  0  0  0  0  0  0
  -10.4051  -19.7586   11.2778 C   0  0  0  0  0  0  0  0  0  0  0  0
   -9.1530  -20.1507   10.7795 C   0  0  0  0  0  0  0  0  0  0  0  0
   -8.1017  -19.2294   10.6839 C   0  0  0  0  0  0  0  0  0  0  0  0
   -8.3349  -17.9032   11.0783 C   0  0  0  0  0  0  0  0  0  0  0  0
   -7.4773  -16.8281   11.0838 N   0  0  0  0  0  0  0  0  0  0  0  0
   -8.8530  -21.7658   10.2429 Cl  0  0  0  0  0  0  0  0  0  0  0  0
  -11.4669  -20.6323   11.3734 O   0  0  0  0  0  0  0  0  0  0  0  0
  -12.5262  -20.4408   10.5053 C   0  0  0  0  0  0  0  0  0  0  0  0
  -13.3188  -19.2846   10.5304 C   0  0  0  0  0  0  0  0  0  0  0  0
  -14.3665  -19.1344    9.6224 C   0  0  0  0  0  0  0  0  0  0  0  0
  -14.6219  -20.1279    8.6796 C   0  0  0  0  0  0  0  0  0  0  0  0
  -13.8238  -21.2756    8.6345 C   0  0  0  0  0  0  0  0  0  0  0  0
  -12.7674  -21.4342    9.5416 C   0  0  0  0  0  0  0  0  0  0  0  0
  -11.7588  -22.8458    9.4996 Cl  0  0  0  0  0  0  0  0  0  0  0  0
  -14.1988  -22.4584    7.4296 Cl  0  0  0  0  0  0  0  0  0  0  0  0
  1  2  1  0
  2  3  2  0
  2  4  1  0
  4  5  1  0
  5  6  1  0
  5 13  2  0
  6  7  1  0
  7  8  2  0
  7 12  1  0
  8  9  1  0
  9 10  2  0
  9 15  1  0
 10 11  1  0
 10 14  1  0
 11 12  2  0
 12 13  1  0
 15 16  1  0
 16 17  2  0
 16 21  1  0
 17 18  1  0
 18 19  2  0
 19 20  1  0
 20 21  2  0
 20 23  1  0
 21 22  1  0
M  END
>  <Gold.Gold.Protein.RotatedWaterAtoms>  (567) 


>  <Gold.Id.Protein>  (567) 


>  <Gold.PLP.Chemscore.CHOScore>  (567) 
0.0000

>  <Gold.PLP.Chemscore.Hbond>  (567) 
1.0000

>  <Gold.PLP.Chemscore.Internal.Correction>  (567) 
0.0086

>  <Gold.PLP.Chemscore.Metal>  (567) 
0.0000

>  <Gold.PLP.Fitness>  (567) 
50.7139

>  <Gold.PLP.PLP>  (567) 
-48.1706

>  <Gold.PLP.ligand.clash>  (567) 
0.0000

>  <Gold.PLP.ligand.torsion>  (567) 
0.2327

>  <Gold.PLP.part.buried>  (567) 
-6.5205

>  <Gold.PLP.part.hbond>  (567) 
-2.0000

>  <Gold.PLP.part.metal>  (567) 
0.0000

>  <Gold.PLP.part.nonpolar>  (567) 
-39.3857

>  <Gold.PLP.part.repulsive>  (567) 
0.3298

>  <Gold.Protein.RotatedAtoms>  (567) 


>  <Gold.Protein.RotatedTorsions>  (567) 


>  <Gold.Protein.RotatedWaterAtoms>  (567) 


>  <Gold.Version>  (567) 
5.3.0

>  <PLP.Chemscore.CHOScore>  (567) 


>  <PLP.Chemscore.Hbond>  (567) 


>  <PLP.Chemscore.Internal.Correction>  (567) 


>  <PLP.Chemscore.Metal>  (567) 


>  <PLP.Fitness>  (567) 


>  <PLP.PLP>  (567) 


>  <PLP.ligand.clash>  (567) 


>  <PLP.ligand.torsion>  (567) 


>  <PLP.part.buried>  (567) 


>  <PLP.part.hbond>  (567) 


>  <PLP.part.metal>  (567) 


>  <PLP.part.nonpolar>  (567) 


>  <PLP.part.repulsive>  (567) 


>  <RMSD>  (567) 
0.439733510035

>  <Torsion>  (567) 
177.672185574

>  <TorsionO>  (567) 
4.31728583372

>  <TorsionR>  (567) 
173.35489974

>  <Version>  (567) 


>  <product>  (567) 
82|Compound_31|Compounds_3D_F|sdf|13|dock8|1

>  <rmsd>  (567) 
-1

$$$$
27|Compound_12|Compounds_3D_F|sdf|5|dock8|1
     RDKit          3D

  6  5  0  0  0  0  0  0  0  0999 V2000
   -3.8628  -16.6363   11.9723 B   0  0  0  0  0  0  0  0  0  0  0  0
   -5.0755  -15.6656   12.1980 C   0  0  0  0  0  0  0  0  0  0  0  0
   -6.1939  -16.1134   12.3350 O   0  0  0  0  0  0  0  0  0  0  0  0
   -4.8734  -14.3334   12.2393 N   0  0  0  0  0  0  0  0  0  0  0  0
   -6.0056  -13.4273   12.4497 C   0  0  0  0  0  0  0  0  0  0  0  0
   -5.5009  -11.9837   12.4999 C   0  0  0  0  0  0  0  0  0  0  0  0
  1  2  1  0
  2  3  2  0
  2  4  1  0
  4  5  1  0
  5  6  1  0
M  END
>  <Gold.Gold.Protein.RotatedWaterAtoms>  (568) 


>  <Gold.Id.Protein>  (568) 


>  <Gold.PLP.Chemscore.CHOScore>  (568) 
0.0000

>  <Gold.PLP.Chemscore.Hbond>  (568) 
1.0000

>  <Gold.PLP.Chemscore.Internal.Correction>  (568) 
0.0000

>  <Gold.PLP.Chemscore.Metal>  (568) 
0.0000

>  <Gold.PLP.Fitness>  (568) 
24.3541

>  <Gold.PLP.PLP>  (568) 
-21.3579

>  <Gold.PLP.ligand.clash>  (568) 
0.0000

>  <Gold.PLP.ligand.torsion>  (568) 
0.0019

>  <Gold.PLP.part.buried>  (568) 
-4.2644

>  <Gold.PLP.part.hbond>  (568) 
-2.0000

>  <Gold.PLP.part.metal>  (568) 
0.0000

>  <Gold.PLP.part.nonpolar>  (568) 
-14.9949

>  <Gold.PLP.part.repulsive>  (568) 
0.1748

>  <Gold.Protein.RotatedAtoms>  (568) 


>  <Gold.Protein.RotatedTorsions>  (568) 


>  <Gold.Protein.RotatedWaterAtoms>  (568) 


>  <Gold.Version>  (568) 
5.3.0

>  <PLP.Chemscore.CHOScore>  (568) 


>  <PLP.Chemscore.Hbond>  (568) 


>  <PLP.Chemscore.Internal.Correction>  (568) 


>  <PLP.Chemscore.Metal>  (568) 


>  <PLP.Fitness>  (568) 


>  <PLP.PLP>  (568) 


>  <PLP.ligand.clash>  (568) 


>  <PLP.ligand.torsion>  (568) 


>  <PLP.part.buried>  (568) 


>  <PLP.part.hbond>  (568) 


>  <PLP.part.metal>  (568) 


>  <PLP.part.nonpolar>  (568) 


>  <PLP.part.repulsive>  (568) 


>  <Version>  (568) 


$$$$
94|664022_40|Aromatic_carboxylic_acids_F|sdf|24|dock1|1
     RDKit          3D

 12 12  0  0  0  0  0  0  0  0999 V2000
   -8.2596  -17.1212   11.4595 C   0  0  0  0  0  0  0  0  0  0  0  0
   -7.6366  -15.8367   11.6688 N   0  0  0  0  0  0  0  0  0  0  0  0
   -8.3409  -14.6553   11.5719 C   0  0  0  0  0  0  0  0  0  0  0  0
   -9.5296  -14.5547   11.2978 O   0  0  0  0  0  0  0  0  0  0  0  0
   -7.5420  -13.4431   11.8503 C   0  0  0  0  0  0  0  0  0  0  0  0
   -8.1627  -12.1983   11.6738 C   0  0  0  0  0  0  0  0  0  0  0  0
   -7.4390  -11.0301   11.9055 C   0  0  0  0  0  0  0  0  0  0  0  0
   -6.1069  -11.0910   12.3103 C   0  0  0  0  0  0  0  0  0  0  0  0
   -5.4897  -12.3324   12.4853 C   0  0  0  0  0  0  0  0  0  0  0  0
   -6.2035  -13.5136   12.2549 C   0  0  0  0  0  0  0  0  0  0  0  0
   -5.3062  -15.1564   12.5638 Br  0  0  0  0  0  0  0  0  0  0  0  0
   -8.1960   -9.5005   11.6887 Cl  0  0  0  0  0  0  0  0  0  0  0  0
  1  2  1  0
  2  3  1  0
  3  4  2  0
  3  5  1  0
  5  6  2  0
  5 10  1  0
  6  7  1  0
  7  8  2  0
  7 12  1  0
  8  9  1  0
  9 10  2  0
 10 11  1  0
M  END
>  <Gold.Gold.Protein.RotatedWaterAtoms>  (569) 


>  <Gold.Id.Protein>  (569) 


>  <Gold.PLP.Chemscore.CHOScore>  (569) 
0.0000

>  <Gold.PLP.Chemscore.Hbond>  (569) 
0.4160

>  <Gold.PLP.Chemscore.Internal.Correction>  (569) 
0.0004

>  <Gold.PLP.Chemscore.Metal>  (569) 
0.0000

>  <Gold.PLP.Fitness>  (569) 
48.9046

>  <Gold.PLP.PLP>  (569) 
-47.6744

>  <Gold.PLP.ligand.clash>  (569) 
0.0000

>  <Gold.PLP.ligand.torsion>  (569) 
0.0091

>  <Gold.PLP.part.buried>  (569) 
-7.3578

>  <Gold.PLP.part.hbond>  (569) 
-0.5127

>  <Gold.PLP.part.metal>  (569) 
0.0000

>  <Gold.PLP.part.nonpolar>  (569) 
-40.3098

>  <Gold.PLP.part.repulsive>  (569) 
0.1684

>  <Gold.Protein.RotatedAtoms>  (569) 


>  <Gold.Protein.RotatedTorsions>  (569) 


>  <Gold.Protein.RotatedWaterAtoms>  (569) 


>  <Gold.Version>  (569) 
5.3.0

>  <PLP.Chemscore.CHOScore>  (569) 


>  <PLP.Chemscore.Hbond>  (569) 


>  <PLP.Chemscore.Internal.Correction>  (569) 


>  <PLP.Chemscore.Metal>  (569) 


>  <PLP.Fitness>  (569) 


>  <PLP.PLP>  (569) 


>  <PLP.ligand.clash>  (569) 


>  <PLP.ligand.torsion>  (569) 


>  <PLP.part.buried>  (569) 


>  <PLP.part.hbond>  (569) 


>  <PLP.part.metal>  (569) 


>  <PLP.part.nonpolar>  (569) 


>  <PLP.part.repulsive>  (569) 


>  <RMSD>  (569) 
0.30972197429

>  <Torsion>  (569) 
172.929186758

>  <TorsionO>  (569) 
24.4968065243

>  <TorsionR>  (569) 
162.574006718

>  <Version>  (569) 


>  <product>  (569) 
27|Compound_12|Compounds_3D_F|sdf|5|dock8|1

>  <rmsd>  (569) 
-1

$$$$
110|565385_49|Aromatic_carboxylic_acids_F|sdf|29|dock1|1
     RDKit          3D

 13 13  0  0  0  0  0  0  0  0999 V2000
  -10.1118  -17.9021   11.6320 C   0  0  0  0  0  0  0  0  0  0  0  0
   -9.7537  -16.5043   11.6546 N   0  0  0  0  0  0  0  0  0  0  0  0
   -8.4330  -16.1187   11.7930 C   0  0  0  0  0  0  0  0  0  0  0  0
   -7.5159  -16.9298   11.9008 O   0  0  0  0  0  0  0  0  0  0  0  0
   -8.1234  -14.6552   11.8105 C   0  0  0  0  0  0  0  0  0  0  0  0
   -9.0636  -13.6551   11.5375 C   0  0  0  0  0  0  0  0  0  0  0  0
   -8.6966  -12.3009   11.5726 C   0  0  0  0  0  0  0  0  0  0  0  0
   -7.3879  -11.9195   11.8809 C   0  0  0  0  0  0  0  0  0  0  0  0
   -6.4486  -12.9235   12.1551 C   0  0  0  0  0  0  0  0  0  0  0  0
   -6.8098  -14.2750   12.1207 C   0  0  0  0  0  0  0  0  0  0  0  0
   -4.6444  -12.5025   12.5849 Br  0  0  0  0  0  0  0  0  0  0  0  0
   -6.9476  -10.6242   11.9372 O   0  0  0  0  0  0  0  0  0  0  0  0
   -7.9020   -9.5910   11.7256 C   0  0  0  0  0  0  0  0  0  0  0  0
  1  2  1  0
  2  3  1  0
  3  4  2  0
  3  5  1  0
  5  6  2  0
  5 10  1  0
  6  7  1  0
  7  8  2  0
  8  9  1  0
  8 12  1  0
  9 10  2  0
  9 11  1  0
 12 13  1  0
M  END
>  <Gold.Gold.Protein.RotatedWaterAtoms>  (570) 


>  <Gold.Id.Protein>  (570) 


>  <Gold.PLP.Chemscore.CHOScore>  (570) 
0.0000

>  <Gold.PLP.Chemscore.Hbond>  (570) 
1.0000

>  <Gold.PLP.Chemscore.Internal.Correction>  (570) 
0.0000

>  <Gold.PLP.Chemscore.Metal>  (570) 
0.0000

>  <Gold.PLP.Fitness>  (570) 
43.9775

>  <Gold.PLP.PLP>  (570) 
-41.0517

>  <Gold.PLP.ligand.clash>  (570) 
0.0000

>  <Gold.PLP.ligand.torsion>  (570) 
0.0371

>  <Gold.PLP.part.buried>  (570) 
-3.7367

>  <Gold.PLP.part.hbond>  (570) 
-1.0000

>  <Gold.PLP.part.metal>  (570) 
0.0000

>  <Gold.PLP.part.nonpolar>  (570) 
-36.7483

>  <Gold.PLP.part.repulsive>  (570) 
0.4054

>  <Gold.Protein.RotatedAtoms>  (570) 


>  <Gold.Protein.RotatedTorsions>  (570) 


>  <Gold.Protein.RotatedWaterAtoms>  (570) 


>  <Gold.Version>  (570) 
5.3.0

>  <PLP.Chemscore.CHOScore>  (570) 


>  <PLP.Chemscore.Hbond>  (570) 


>  <PLP.Chemscore.Internal.Correction>  (570) 


>  <PLP.Chemscore.Metal>  (570) 


>  <PLP.Fitness>  (570) 


>  <PLP.PLP>  (570) 


>  <PLP.ligand.clash>  (570) 


>  <PLP.ligand.torsion>  (570) 


>  <PLP.part.buried>  (570) 


>  <PLP.part.hbond>  (570) 


>  <PLP.part.metal>  (570) 


>  <PLP.part.nonpolar>  (570) 


>  <PLP.part.repulsive>  (570) 


>  <RMSD>  (570) 
0.319376411377

>  <Torsion>  (570) 
169.460450784

>  <TorsionO>  (570) 
9.7963905484

>  <TorsionR>  (570) 
179.256841332

>  <Version>  (570) 


>  <product>  (570) 
27|Compound_12|Compounds_3D_F|sdf|5|dock8|1

>  <rmsd>  (570) 
-1

$$$$
128|137677_56|Aromatic_carboxylic_acids_F|sdf|33|dock1|1
     RDKit          3D

 11 11  0  0  0  0  0  0  0  0999 V2000
   -8.6116  -16.1544   11.8887 C   0  0  0  0  0  0  0  0  0  0  0  0
   -7.9978  -14.8484   11.9215 N   0  0  0  0  0  0  0  0  0  0  0  0
   -8.7778  -13.7008   11.8756 C   0  0  0  0  0  0  0  0  0  0  0  0
  -10.0002  -13.7896   11.8139 O   0  0  0  0  0  0  0  0  0  0  0  0
   -8.0808  -12.3609   11.9017 C   0  0  0  0  0  0  0  0  0  0  0  0
   -8.7916  -11.1851   11.5813 C   0  0  0  0  0  0  0  0  0  0  0  0
   -8.1781   -9.9267   11.5989 C   0  0  0  0  0  0  0  0  0  0  0  0
   -6.8391   -9.8089   11.9369 C   0  0  0  0  0  0  0  0  0  0  0  0
   -6.1124  -10.9502   12.2575 C   0  0  0  0  0  0  0  0  0  0  0  0
   -6.7171  -12.2196   12.2428 C   0  0  0  0  0  0  0  0  0  0  0  0
   -5.5419  -13.6455   12.7121 Br  0  0  0  0  0  0  0  0  0  0  0  0
  1  2  1  0
  2  3  1  0
  3  4  2  0
  3  5  1  0
  5  6  2  0
  5 10  1  0
  6  7  1  0
  7  8  2  0
  8  9  1  0
  9 10  2  0
 10 11  1  0
M  END
>  <Gold.Gold.Protein.RotatedWaterAtoms>  (571) 


>  <Gold.Id.Protein>  (571) 


>  <Gold.PLP.Chemscore.CHOScore>  (571) 
0.0000

>  <Gold.PLP.Chemscore.Hbond>  (571) 
1.0000

>  <Gold.PLP.Chemscore.Internal.Correction>  (571) 
0.0000

>  <Gold.PLP.Chemscore.Metal>  (571) 
0.0000

>  <Gold.PLP.Fitness>  (571) 
45.2899

>  <Gold.PLP.PLP>  (571) 
-42.4444

>  <Gold.PLP.ligand.clash>  (571) 
0.0000

>  <Gold.PLP.ligand.torsion>  (571) 
0.0772

>  <Gold.PLP.part.buried>  (571) 
-6.4690

>  <Gold.PLP.part.hbond>  (571) 
-0.6863

>  <Gold.PLP.part.metal>  (571) 
0.0000

>  <Gold.PLP.part.nonpolar>  (571) 
-34.8280

>  <Gold.PLP.part.repulsive>  (571) 
0.1963

>  <Gold.Protein.RotatedAtoms>  (571) 


>  <Gold.Protein.RotatedTorsions>  (571) 


>  <Gold.Protein.RotatedWaterAtoms>  (571) 


>  <Gold.Version>  (571) 
5.3.0

>  <PLP.Chemscore.CHOScore>  (571) 


>  <PLP.Chemscore.Hbond>  (571) 


>  <PLP.Chemscore.Internal.Correction>  (571) 


>  <PLP.Chemscore.Metal>  (571) 


>  <PLP.Fitness>  (571) 


>  <PLP.PLP>  (571) 


>  <PLP.ligand.clash>  (571) 


>  <PLP.ligand.torsion>  (571) 


>  <PLP.part.buried>  (571) 


>  <PLP.part.hbond>  (571) 


>  <PLP.part.metal>  (571) 


>  <PLP.part.nonpolar>  (571) 


>  <PLP.part.repulsive>  (571) 


>  <RMSD>  (571) 
0.428070490903

>  <Torsion>  (571) 
152.444048788

>  <TorsionO>  (571) 
39.0580871276

>  <TorsionR>  (571) 
168.497864085

>  <Version>  (571) 


>  <product>  (571) 
27|Compound_12|Compounds_3D_F|sdf|5|dock8|1

>  <rmsd>  (571) 
-1

$$$$
974|750794_1404|Aromatic_primary_amines_F|sdf|194|dock3|1
     RDKit          3D

 14 14  0  0  0  0  0  0  0  0999 V2000
  -13.6355  -18.1936    9.4145 C   0  0  0  0  0  0  0  0  0  0  0  0
  -13.2544  -19.4497   10.1732 C   0  0  0  0  0  0  0  0  0  0  0  0
  -11.8731  -19.3506   10.5383 O   0  0  0  0  0  0  0  0  0  0  0  0
  -11.6148  -18.5085   11.5823 C   0  0  0  0  0  0  0  0  0  0  0  0
  -12.3947  -18.2810   12.5004 O   0  0  0  0  0  0  0  0  0  0  0  0
  -10.3031  -17.8985   11.4902 C   0  0  0  0  0  0  0  0  0  0  0  0
   -9.1673  -18.4974   10.9931 C   0  0  0  0  0  0  0  0  0  0  0  0
   -8.1448  -17.6055   11.0758 O   0  0  0  0  0  0  0  0  0  0  0  0
   -8.7110  -16.4917   11.6237 C   0  0  0  0  0  0  0  0  0  0  0  0
   -9.9933  -16.6110   11.8915 N   0  0  0  0  0  0  0  0  0  0  0  0
   -7.9611  -15.3718   11.8549 N   0  0  0  0  0  0  0  0  0  0  0  0
   -8.5046  -14.1249   12.0676 C   0  0  0  0  0  0  0  0  0  0  0  0
   -9.6950  -13.8313   12.1035 O   0  0  0  0  0  0  0  0  0  0  0  0
   -7.4448  -13.0785   12.3021 C   0  0  0  0  0  0  0  0  0  0  0  0
  1  2  1  0
  2  3  1  0
  3  4  1  0
  4  5  2  0
  4  6  1  0
  6  7  2  0
  6 10  1  0
  7  8  1  0
  8  9  1  0
  9 10  2  0
  9 11  1  0
 11 12  1  0
 12 13  2  0
 12 14  1  0
M  END
>  <Gold.Gold.Protein.RotatedWaterAtoms>  (572) 


>  <Gold.Id.Protein>  (572) 


>  <Gold.PLP.Chemscore.CHOScore>  (572) 
0.0000

>  <Gold.PLP.Chemscore.Hbond>  (572) 
2.0000

>  <Gold.PLP.Chemscore.Internal.Correction>  (572) 
0.0053

>  <Gold.PLP.Chemscore.Metal>  (572) 
0.0000

>  <Gold.PLP.Fitness>  (572) 
36.8047

>  <Gold.PLP.PLP>  (572) 
-32.7996

>  <Gold.PLP.ligand.clash>  (572) 
0.0000

>  <Gold.PLP.ligand.torsion>  (572) 
1.0001

>  <Gold.PLP.part.buried>  (572) 
-6.5206

>  <Gold.PLP.part.hbond>  (572) 
-2.9156

>  <Gold.PLP.part.metal>  (572) 
0.0000

>  <Gold.PLP.part.nonpolar>  (572) 
-23.4080

>  <Gold.PLP.part.repulsive>  (572) 
0.3100

>  <Gold.Protein.RotatedAtoms>  (572) 


>  <Gold.Protein.RotatedTorsions>  (572) 


>  <Gold.Protein.RotatedWaterAtoms>  (572) 


>  <Gold.Version>  (572) 
5.3.0

>  <PLP.Chemscore.CHOScore>  (572) 


>  <PLP.Chemscore.Hbond>  (572) 


>  <PLP.Chemscore.Internal.Correction>  (572) 


>  <PLP.Chemscore.Metal>  (572) 


>  <PLP.Fitness>  (572) 


>  <PLP.PLP>  (572) 


>  <PLP.ligand.clash>  (572) 


>  <PLP.ligand.torsion>  (572) 


>  <PLP.part.buried>  (572) 


>  <PLP.part.hbond>  (572) 


>  <PLP.part.metal>  (572) 


>  <PLP.part.nonpolar>  (572) 


>  <PLP.part.repulsive>  (572) 


>  <RMSD>  (572) 
0.499949349045

>  <Torsion>  (572) 
159.973716791

>  <TorsionO>  (572) 
19.1052109979

>  <TorsionR>  (572) 
179.078927789

>  <Version>  (572) 


>  <product>  (572) 
27|Compound_12|Compounds_3D_F|sdf|5|dock8|1

>  <rmsd>  (572) 
-1

$$$$
1884|M3006_1781|Aromatic_primary_amines_F|sdf|361|dock3|1
     RDKit          3D

 31 34  0  0  0  0  0  0  0  0999 V2000
  -14.4210  -19.8971    8.7934 C   0  0  0  0  0  0  0  0  0  0  0  0
  -13.9762  -19.4927   10.1894 C   0  0  0  0  0  0  0  0  0  0  0  0
  -14.1356  -20.6409   11.1817 C   0  0  0  0  0  0  0  0  0  0  0  0
  -13.5197  -20.3070   12.5189 C   0  0  0  0  0  0  0  0  0  0  0  0
  -12.9307  -19.2724   12.7954 O   0  0  0  0  0  0  0  0  0  0  0  0
  -13.7110  -21.3451   13.3845 O   0  0  0  0  0  0  0  0  0  0  0  0
  -12.9425  -21.2698   14.5900 C   0  0  0  0  0  0  0  0  0  0  0  0
  -12.8849  -22.6189   15.2889 C   0  0  0  0  0  0  0  0  0  0  0  0
  -11.6552  -22.4172   16.1494 C   0  0  0  0  0  0  0  0  0  0  0  0
  -11.2420  -23.7410   16.7624 C   0  0  0  0  0  0  0  0  0  0  0  0
  -12.3024  -24.2223   17.5862 O   0  0  0  0  0  0  0  0  0  0  0  0
  -13.7888  -24.3384   16.9603 P   0  0  0  0  0  0  0  0  0  0  0  0
  -14.8775  -24.6795   17.9243 O   0  0  0  0  0  0  0  0  0  0  0  0
  -13.9839  -22.9641   16.1174 O   0  0  0  0  0  0  0  0  0  0  0  0
  -13.5991  -25.4435   15.8075 O   0  0  0  0  0  0  0  0  0  0  0  0
  -10.6922  -21.8161   15.2889 O   0  0  0  0  0  0  0  0  0  0  0  0
  -11.4338  -20.9664   14.3653 C   0  0  0  0  0  0  0  0  0  0  0  0
  -10.9052  -21.2017   13.0342 N   0  0  0  0  0  0  0  0  0  0  0  0
  -10.7814  -22.4114   12.4013 C   0  0  0  0  0  0  0  0  0  0  0  0
  -10.2640  -22.2918   11.1953 N   0  0  0  0  0  0  0  0  0  0  0  0
  -10.0274  -20.9476   11.0424 C   0  0  0  0  0  0  0  0  0  0  0  0
  -10.4203  -20.2487   12.1733 C   0  0  0  0  0  0  0  0  0  0  0  0
  -10.3338  -18.9216   12.3641 N   0  0  0  0  0  0  0  0  0  0  0  0
   -9.8057  -18.2730   11.3024 C   0  0  0  0  0  0  0  0  0  0  0  0
   -9.3808  -18.8370   10.1545 N   0  0  0  0  0  0  0  0  0  0  0  0
   -9.4895  -20.1691   10.0244 C   0  0  0  0  0  0  0  0  0  0  0  0
   -9.0330  -20.6622    8.8349 O   0  0  0  0  0  0  0  0  0  0  0  0
   -9.7222  -16.8901   11.4793 N   0  0  0  0  0  0  0  0  0  0  0  0
   -8.5796  -16.1798   11.7761 C   0  0  0  0  0  0  0  0  0  0  0  0
   -7.4445  -16.6221   11.9131 O   0  0  0  0  0  0  0  0  0  0  0  0
   -8.8524  -14.7024   11.8973 C   0  0  0  0  0  0  0  0  0  0  0  0
  1  2  1  0
  2  3  1  0
  3  4  1  0
  4  5  2  0
  4  6  1  0
  6  7  1  0
  7  8  1  0
  7 17  1  0
  8  9  1  0
  8 14  1  0
  9 10  1  0
  9 16  1  0
 10 11  1  0
 11 12  1  0
 12 13  2  0
 12 14  1  0
 12 15  1  0
 16 17  1  0
 17 18  1  0
 18 19  1  0
 18 22  1  0
 19 20  2  0
 20 21  1  0
 21 22  2  0
 21 26  1  0
 22 23  1  0
 23 24  2  0
 24 25  1  0
 24 28  1  0
 25 26  2  0
 26 27  1  0
 28 29  1  0
 29 30  2  0
 29 31  1  0
M  END
>  <Gold.Gold.Protein.RotatedWaterAtoms>  (573) 


>  <Gold.Id.Protein>  (573) 


>  <Gold.PLP.Chemscore.CHOScore>  (573) 
0.0000

>  <Gold.PLP.Chemscore.Hbond>  (573) 
1.2080

>  <Gold.PLP.Chemscore.Internal.Correction>  (573) 
0.1232

>  <Gold.PLP.Chemscore.Metal>  (573) 
0.0000

>  <Gold.PLP.Fitness>  (573) 
47.7145

>  <Gold.PLP.PLP>  (573) 
-46.0218

>  <Gold.PLP.ligand.clash>  (573) 
0.0000

>  <Gold.PLP.ligand.torsion>  (573) 
1.0272

>  <Gold.PLP.part.buried>  (573) 
-2.2958

>  <Gold.PLP.part.hbond>  (573) 
-4.0214

>  <Gold.PLP.part.metal>  (573) 
0.0000

>  <Gold.PLP.part.nonpolar>  (573) 
-41.4699

>  <Gold.PLP.part.repulsive>  (573) 
0.9524

>  <Gold.Protein.RotatedAtoms>  (573) 


>  <Gold.Protein.RotatedTorsions>  (573) 


>  <Gold.Protein.RotatedWaterAtoms>  (573) 


>  <Gold.Version>  (573) 
5.3.0

>  <PLP.Chemscore.CHOScore>  (573) 


>  <PLP.Chemscore.Hbond>  (573) 


>  <PLP.Chemscore.Internal.Correction>  (573) 


>  <PLP.Chemscore.Metal>  (573) 


>  <PLP.Fitness>  (573) 


>  <PLP.PLP>  (573) 


>  <PLP.ligand.clash>  (573) 


>  <PLP.ligand.torsion>  (573) 


>  <PLP.part.buried>  (573) 


>  <PLP.part.hbond>  (573) 


>  <PLP.part.metal>  (573) 


>  <PLP.part.nonpolar>  (573) 


>  <PLP.part.repulsive>  (573) 


>  <RMSD>  (573) 
0.291955871297

>  <Torsion>  (573) 
171.923704933

>  <TorsionO>  (573) 
6.03609353985

>  <TorsionR>  (573) 
177.959798473

>  <Version>  (573) 


>  <product>  (573) 
27|Compound_12|Compounds_3D_F|sdf|5|dock8|1

>  <rmsd>  (573) 
-1

$$$$
193|32168_281|Aromatic_primary_amines_F|sdf|39|dock6|1
     RDKit          3D

 23 25  0  0  0  0  0  0  0  0999 V2000
   -7.8439  -12.1461   11.8919 C   0  0  0  0  0  0  0  0  0  0  0  0
   -8.5691  -13.4472   11.6781 C   0  0  0  0  0  0  0  0  0  0  0  0
   -9.7886  -13.4981   11.5208 O   0  0  0  0  0  0  0  0  0  0  0  0
   -7.7264  -14.5390   11.7020 N   0  0  0  0  0  0  0  0  0  0  0  0
   -8.1889  -15.8197   11.5323 C   0  0  0  0  0  0  0  0  0  0  0  0
   -9.4747  -16.2039   11.8163 N   0  0  0  0  0  0  0  0  0  0  0  0
   -9.5964  -17.5375   11.5379 C   0  0  0  0  0  0  0  0  0  0  0  0
  -10.6643  -18.4283   11.6415 C   0  0  0  0  0  0  0  0  0  0  0  0
  -10.4051  -19.7586   11.2778 C   0  0  0  0  0  0  0  0  0  0  0  0
   -9.1530  -20.1507   10.7795 C   0  0  0  0  0  0  0  0  0  0  0  0
   -8.1017  -19.2294   10.6839 C   0  0  0  0  0  0  0  0  0  0  0  0
   -8.3349  -17.9032   11.0783 C   0  0  0  0  0  0  0  0  0  0  0  0
   -7.4773  -16.8281   11.0838 N   0  0  0  0  0  0  0  0  0  0  0  0
   -8.8530  -21.7658   10.2429 Cl  0  0  0  0  0  0  0  0  0  0  0  0
  -11.4669  -20.6323   11.3734 O   0  0  0  0  0  0  0  0  0  0  0  0
  -12.5262  -20.4408   10.5053 C   0  0  0  0  0  0  0  0  0  0  0  0
  -13.3188  -19.2846   10.5304 C   0  0  0  0  0  0  0  0  0  0  0  0
  -14.3665  -19.1344    9.6224 C   0  0  0  0  0  0  0  0  0  0  0  0
  -14.6219  -20.1279    8.6796 C   0  0  0  0  0  0  0  0  0  0  0  0
  -13.8238  -21.2756    8.6345 C   0  0  0  0  0  0  0  0  0  0  0  0
  -12.7674  -21.4342    9.5416 C   0  0  0  0  0  0  0  0  0  0  0  0
  -11.7588  -22.8458    9.4996 Cl  0  0  0  0  0  0  0  0  0  0  0  0
  -14.1988  -22.4584    7.4296 Cl  0  0  0  0  0  0  0  0  0  0  0  0
  1  2  1  0
  2  3  2  0
  2  4  1  0
  4  5  1  0
  5  6  1  0
  5 13  2  0
  6  7  1  0
  7  8  2  0
  7 12  1  0
  8  9  1  0
  9 10  2  0
  9 15  1  0
 10 11  1  0
 10 14  1  0
 11 12  2  0
 12 13  1  0
 15 16  1  0
 16 17  2  0
 16 21  1  0
 17 18  1  0
 18 19  2  0
 19 20  1  0
 20 21  2  0
 20 23  1  0
 21 22  1  0
M  END
>  <Gold.Gold.Protein.RotatedWaterAtoms>  (574) 


>  <Gold.Id.Protein>  (574) 


>  <Gold.PLP.Chemscore.CHOScore>  (574) 
0.0000

>  <Gold.PLP.Chemscore.Hbond>  (574) 
1.0000

>  <Gold.PLP.Chemscore.Internal.Correction>  (574) 
0.0086

>  <Gold.PLP.Chemscore.Metal>  (574) 
0.0000

>  <Gold.PLP.Fitness>  (574) 
50.7139

>  <Gold.PLP.PLP>  (574) 
-48.1706

>  <Gold.PLP.ligand.clash>  (574) 
0.0000

>  <Gold.PLP.ligand.torsion>  (574) 
0.2327

>  <Gold.PLP.part.buried>  (574) 
-6.5205

>  <Gold.PLP.part.hbond>  (574) 
-2.0000

>  <Gold.PLP.part.metal>  (574) 
0.0000

>  <Gold.PLP.part.nonpolar>  (574) 
-39.3857

>  <Gold.PLP.part.repulsive>  (574) 
0.3298

>  <Gold.Protein.RotatedAtoms>  (574) 


>  <Gold.Protein.RotatedTorsions>  (574) 


>  <Gold.Protein.RotatedWaterAtoms>  (574) 


>  <Gold.Version>  (574) 
5.3.0

>  <PLP.Chemscore.CHOScore>  (574) 


>  <PLP.Chemscore.Hbond>  (574) 


>  <PLP.Chemscore.Internal.Correction>  (574) 


>  <PLP.Chemscore.Metal>  (574) 


>  <PLP.Fitness>  (574) 


>  <PLP.PLP>  (574) 


>  <PLP.ligand.clash>  (574) 


>  <PLP.ligand.torsion>  (574) 


>  <PLP.part.buried>  (574) 


>  <PLP.part.hbond>  (574) 


>  <PLP.part.metal>  (574) 


>  <PLP.part.nonpolar>  (574) 


>  <PLP.part.repulsive>  (574) 


>  <RMSD>  (574) 
0.439733510035

>  <Torsion>  (574) 
177.672185574

>  <TorsionO>  (574) 
4.31728583372

>  <TorsionR>  (574) 
173.35489974

>  <Version>  (574) 


>  <product>  (574) 
27|Compound_12|Compounds_3D_F|sdf|5|dock8|1

>  <rmsd>  (574) 
-1

$$$$
86|Compound_32|Compounds_3D_F|sdf|14|dock3|1
     RDKit          3D

  9  9  0  0  0  0  0  0  0  0999 V2000
   -5.5023  -12.2024   12.4994 B   0  0  0  0  0  0  0  0  0  0  0  0
   -5.7194  -13.7451   12.3083 C   0  0  0  0  0  0  0  0  0  0  0  0
   -6.8429  -14.1982   12.2574 O   0  0  0  0  0  0  0  0  0  0  0  0
   -4.6560  -14.5668   12.2009 N   0  0  0  0  0  0  0  0  0  0  0  0
   -4.8588  -16.0070   12.0227 C   0  0  0  0  0  0  0  0  0  0  0  0
   -5.7956  -16.6126   13.0697 C   0  0  0  0  0  0  0  0  0  0  0  0
   -5.1976  -16.4123   10.5756 C   0  0  0  0  0  0  0  0  0  0  0  0
   -4.2720  -17.4983   10.7836 O   0  0  0  0  0  0  0  0  0  0  0  0
   -3.5536  -16.7988   11.8243 C   0  0  0  0  0  0  0  0  0  0  0  0
  1  2  1  0
  2  3  2  0
  2  4  1  0
  4  5  1  0
  5  6  1  0
  5  7  1  0
  5  9  1  0
  7  8  1  0
  8  9  1  0
M  END
>  <Gold.Gold.Protein.RotatedWaterAtoms>  (575) 


>  <Gold.Id.Protein>  (575) 


>  <Gold.PLP.Chemscore.CHOScore>  (575) 
0.0000

>  <Gold.PLP.Chemscore.Hbond>  (575) 
1.0000

>  <Gold.PLP.Chemscore.Internal.Correction>  (575) 
0.2523

>  <Gold.PLP.Chemscore.Metal>  (575) 
0.0000

>  <Gold.PLP.Fitness>  (575) 
28.0488

>  <Gold.PLP.PLP>  (575) 
-25.1540

>  <Gold.PLP.ligand.clash>  (575) 
0.0000

>  <Gold.PLP.ligand.torsion>  (575) 
0.1788

>  <Gold.PLP.part.buried>  (575) 
-4.4467

>  <Gold.PLP.part.hbond>  (575) 
-2.0000

>  <Gold.PLP.part.metal>  (575) 
0.0000

>  <Gold.PLP.part.nonpolar>  (575) 
-19.2769

>  <Gold.PLP.part.repulsive>  (575) 
0.3199

>  <Gold.Protein.RotatedAtoms>  (575) 


>  <Gold.Protein.RotatedTorsions>  (575) 


>  <Gold.Protein.RotatedWaterAtoms>  (575) 


>  <Gold.Version>  (575) 
5.3.0

>  <PLP.Chemscore.CHOScore>  (575) 


>  <PLP.Chemscore.Hbond>  (575) 


>  <PLP.Chemscore.Internal.Correction>  (575) 


>  <PLP.Chemscore.Metal>  (575) 


>  <PLP.Fitness>  (575) 


>  <PLP.PLP>  (575) 


>  <PLP.ligand.clash>  (575) 


>  <PLP.ligand.torsion>  (575) 


>  <PLP.part.buried>  (575) 


>  <PLP.part.hbond>  (575) 


>  <PLP.part.metal>  (575) 


>  <PLP.part.nonpolar>  (575) 


>  <PLP.part.repulsive>  (575) 


>  <Version>  (575) 


$$$$
94|664022_40|Aromatic_carboxylic_acids_F|sdf|24|dock1|1
     RDKit          3D

 12 12  0  0  0  0  0  0  0  0999 V2000
   -8.2596  -17.1212   11.4595 C   0  0  0  0  0  0  0  0  0  0  0  0
   -7.6366  -15.8367   11.6688 N   0  0  0  0  0  0  0  0  0  0  0  0
   -8.3409  -14.6553   11.5719 C   0  0  0  0  0  0  0  0  0  0  0  0
   -9.5296  -14.5547   11.2978 O   0  0  0  0  0  0  0  0  0  0  0  0
   -7.5420  -13.4431   11.8503 C   0  0  0  0  0  0  0  0  0  0  0  0
   -8.1627  -12.1983   11.6738 C   0  0  0  0  0  0  0  0  0  0  0  0
   -7.4390  -11.0301   11.9055 C   0  0  0  0  0  0  0  0  0  0  0  0
   -6.1069  -11.0910   12.3103 C   0  0  0  0  0  0  0  0  0  0  0  0
   -5.4897  -12.3324   12.4853 C   0  0  0  0  0  0  0  0  0  0  0  0
   -6.2035  -13.5136   12.2549 C   0  0  0  0  0  0  0  0  0  0  0  0
   -5.3062  -15.1564   12.5638 Br  0  0  0  0  0  0  0  0  0  0  0  0
   -8.1960   -9.5005   11.6887 Cl  0  0  0  0  0  0  0  0  0  0  0  0
  1  2  1  0
  2  3  1  0
  3  4  2  0
  3  5  1  0
  5  6  2  0
  5 10  1  0
  6  7  1  0
  7  8  2  0
  7 12  1  0
  8  9  1  0
  9 10  2  0
 10 11  1  0
M  END
>  <Gold.Gold.Protein.RotatedWaterAtoms>  (576) 


>  <Gold.Id.Protein>  (576) 


>  <Gold.PLP.Chemscore.CHOScore>  (576) 
0.0000

>  <Gold.PLP.Chemscore.Hbond>  (576) 
0.4160

>  <Gold.PLP.Chemscore.Internal.Correction>  (576) 
0.0004

>  <Gold.PLP.Chemscore.Metal>  (576) 
0.0000

>  <Gold.PLP.Fitness>  (576) 
48.9046

>  <Gold.PLP.PLP>  (576) 
-47.6744

>  <Gold.PLP.ligand.clash>  (576) 
0.0000

>  <Gold.PLP.ligand.torsion>  (576) 
0.0091

>  <Gold.PLP.part.buried>  (576) 
-7.3578

>  <Gold.PLP.part.hbond>  (576) 
-0.5127

>  <Gold.PLP.part.metal>  (576) 
0.0000

>  <Gold.PLP.part.nonpolar>  (576) 
-40.3098

>  <Gold.PLP.part.repulsive>  (576) 
0.1684

>  <Gold.Protein.RotatedAtoms>  (576) 


>  <Gold.Protein.RotatedTorsions>  (576) 


>  <Gold.Protein.RotatedWaterAtoms>  (576) 


>  <Gold.Version>  (576) 
5.3.0

>  <PLP.Chemscore.CHOScore>  (576) 


>  <PLP.Chemscore.Hbond>  (576) 


>  <PLP.Chemscore.Internal.Correction>  (576) 


>  <PLP.Chemscore.Metal>  (576) 


>  <PLP.Fitness>  (576) 


>  <PLP.PLP>  (576) 


>  <PLP.ligand.clash>  (576) 


>  <PLP.ligand.torsion>  (576) 


>  <PLP.part.buried>  (576) 


>  <PLP.part.hbond>  (576) 


>  <PLP.part.metal>  (576) 


>  <PLP.part.nonpolar>  (576) 


>  <PLP.part.repulsive>  (576) 


>  <RMSD>  (576) 
0.30972197429

>  <Torsion>  (576) 
172.929186758

>  <TorsionO>  (576) 
24.4968065243

>  <TorsionR>  (576) 
162.574006718

>  <Version>  (576) 


>  <product>  (576) 
86|Compound_32|Compounds_3D_F|sdf|14|dock3|1

>  <rmsd>  (576) 
-1

$$$$
110|565385_49|Aromatic_carboxylic_acids_F|sdf|29|dock1|1
     RDKit          3D

 13 13  0  0  0  0  0  0  0  0999 V2000
  -10.1118  -17.9021   11.6320 C   0  0  0  0  0  0  0  0  0  0  0  0
   -9.7537  -16.5043   11.6546 N   0  0  0  0  0  0  0  0  0  0  0  0
   -8.4330  -16.1187   11.7930 C   0  0  0  0  0  0  0  0  0  0  0  0
   -7.5159  -16.9298   11.9008 O   0  0  0  0  0  0  0  0  0  0  0  0
   -8.1234  -14.6552   11.8105 C   0  0  0  0  0  0  0  0  0  0  0  0
   -9.0636  -13.6551   11.5375 C   0  0  0  0  0  0  0  0  0  0  0  0
   -8.6966  -12.3009   11.5726 C   0  0  0  0  0  0  0  0  0  0  0  0
   -7.3879  -11.9195   11.8809 C   0  0  0  0  0  0  0  0  0  0  0  0
   -6.4486  -12.9235   12.1551 C   0  0  0  0  0  0  0  0  0  0  0  0
   -6.8098  -14.2750   12.1207 C   0  0  0  0  0  0  0  0  0  0  0  0
   -4.6444  -12.5025   12.5849 Br  0  0  0  0  0  0  0  0  0  0  0  0
   -6.9476  -10.6242   11.9372 O   0  0  0  0  0  0  0  0  0  0  0  0
   -7.9020   -9.5910   11.7256 C   0  0  0  0  0  0  0  0  0  0  0  0
  1  2  1  0
  2  3  1  0
  3  4  2  0
  3  5  1  0
  5  6  2  0
  5 10  1  0
  6  7  1  0
  7  8  2  0
  8  9  1  0
  8 12  1  0
  9 10  2  0
  9 11  1  0
 12 13  1  0
M  END
>  <Gold.Gold.Protein.RotatedWaterAtoms>  (577) 


>  <Gold.Id.Protein>  (577) 


>  <Gold.PLP.Chemscore.CHOScore>  (577) 
0.0000

>  <Gold.PLP.Chemscore.Hbond>  (577) 
1.0000

>  <Gold.PLP.Chemscore.Internal.Correction>  (577) 
0.0000

>  <Gold.PLP.Chemscore.Metal>  (577) 
0.0000

>  <Gold.PLP.Fitness>  (577) 
43.9775

>  <Gold.PLP.PLP>  (577) 
-41.0517

>  <Gold.PLP.ligand.clash>  (577) 
0.0000

>  <Gold.PLP.ligand.torsion>  (577) 
0.0371

>  <Gold.PLP.part.buried>  (577) 
-3.7367

>  <Gold.PLP.part.hbond>  (577) 
-1.0000

>  <Gold.PLP.part.metal>  (577) 
0.0000

>  <Gold.PLP.part.nonpolar>  (577) 
-36.7483

>  <Gold.PLP.part.repulsive>  (577) 
0.4054

>  <Gold.Protein.RotatedAtoms>  (577) 


>  <Gold.Protein.RotatedTorsions>  (577) 


>  <Gold.Protein.RotatedWaterAtoms>  (577) 


>  <Gold.Version>  (577) 
5.3.0

>  <PLP.Chemscore.CHOScore>  (577) 


>  <PLP.Chemscore.Hbond>  (577) 


>  <PLP.Chemscore.Internal.Correction>  (577) 


>  <PLP.Chemscore.Metal>  (577) 


>  <PLP.Fitness>  (577) 


>  <PLP.PLP>  (577) 


>  <PLP.ligand.clash>  (577) 


>  <PLP.ligand.torsion>  (577) 


>  <PLP.part.buried>  (577) 


>  <PLP.part.hbond>  (577) 


>  <PLP.part.metal>  (577) 


>  <PLP.part.nonpolar>  (577) 


>  <PLP.part.repulsive>  (577) 


>  <RMSD>  (577) 
0.319376411377

>  <Torsion>  (577) 
169.460450784

>  <TorsionO>  (577) 
9.7963905484

>  <TorsionR>  (577) 
179.256841332

>  <Version>  (577) 


>  <product>  (577) 
86|Compound_32|Compounds_3D_F|sdf|14|dock3|1

>  <rmsd>  (577) 
-1

$$$$
128|137677_56|Aromatic_carboxylic_acids_F|sdf|33|dock1|1
     RDKit          3D

 11 11  0  0  0  0  0  0  0  0999 V2000
   -8.6116  -16.1544   11.8887 C   0  0  0  0  0  0  0  0  0  0  0  0
   -7.9978  -14.8484   11.9215 N   0  0  0  0  0  0  0  0  0  0  0  0
   -8.7778  -13.7008   11.8756 C   0  0  0  0  0  0  0  0  0  0  0  0
  -10.0002  -13.7896   11.8139 O   0  0  0  0  0  0  0  0  0  0  0  0
   -8.0808  -12.3609   11.9017 C   0  0  0  0  0  0  0  0  0  0  0  0
   -8.7916  -11.1851   11.5813 C   0  0  0  0  0  0  0  0  0  0  0  0
   -8.1781   -9.9267   11.5989 C   0  0  0  0  0  0  0  0  0  0  0  0
   -6.8391   -9.8089   11.9369 C   0  0  0  0  0  0  0  0  0  0  0  0
   -6.1124  -10.9502   12.2575 C   0  0  0  0  0  0  0  0  0  0  0  0
   -6.7171  -12.2196   12.2428 C   0  0  0  0  0  0  0  0  0  0  0  0
   -5.5419  -13.6455   12.7121 Br  0  0  0  0  0  0  0  0  0  0  0  0
  1  2  1  0
  2  3  1  0
  3  4  2  0
  3  5  1  0
  5  6  2  0
  5 10  1  0
  6  7  1  0
  7  8  2  0
  8  9  1  0
  9 10  2  0
 10 11  1  0
M  END
>  <Gold.Gold.Protein.RotatedWaterAtoms>  (578) 


>  <Gold.Id.Protein>  (578) 


>  <Gold.PLP.Chemscore.CHOScore>  (578) 
0.0000

>  <Gold.PLP.Chemscore.Hbond>  (578) 
1.0000

>  <Gold.PLP.Chemscore.Internal.Correction>  (578) 
0.0000

>  <Gold.PLP.Chemscore.Metal>  (578) 
0.0000

>  <Gold.PLP.Fitness>  (578) 
45.2899

>  <Gold.PLP.PLP>  (578) 
-42.4444

>  <Gold.PLP.ligand.clash>  (578) 
0.0000

>  <Gold.PLP.ligand.torsion>  (578) 
0.0772

>  <Gold.PLP.part.buried>  (578) 
-6.4690

>  <Gold.PLP.part.hbond>  (578) 
-0.6863

>  <Gold.PLP.part.metal>  (578) 
0.0000

>  <Gold.PLP.part.nonpolar>  (578) 
-34.8280

>  <Gold.PLP.part.repulsive>  (578) 
0.1963

>  <Gold.Protein.RotatedAtoms>  (578) 


>  <Gold.Protein.RotatedTorsions>  (578) 


>  <Gold.Protein.RotatedWaterAtoms>  (578) 


>  <Gold.Version>  (578) 
5.3.0

>  <PLP.Chemscore.CHOScore>  (578) 


>  <PLP.Chemscore.Hbond>  (578) 


>  <PLP.Chemscore.Internal.Correction>  (578) 


>  <PLP.Chemscore.Metal>  (578) 


>  <PLP.Fitness>  (578) 


>  <PLP.PLP>  (578) 


>  <PLP.ligand.clash>  (578) 


>  <PLP.ligand.torsion>  (578) 


>  <PLP.part.buried>  (578) 


>  <PLP.part.hbond>  (578) 


>  <PLP.part.metal>  (578) 


>  <PLP.part.nonpolar>  (578) 


>  <PLP.part.repulsive>  (578) 


>  <RMSD>  (578) 
0.428070490903

>  <Torsion>  (578) 
152.444048788

>  <TorsionO>  (578) 
39.0580871276

>  <TorsionR>  (578) 
168.497864085

>  <Version>  (578) 


>  <product>  (578) 
86|Compound_32|Compounds_3D_F|sdf|14|dock3|1

>  <rmsd>  (578) 
-1

$$$$
974|750794_1404|Aromatic_primary_amines_F|sdf|194|dock3|1
     RDKit          3D

 14 14  0  0  0  0  0  0  0  0999 V2000
  -13.6355  -18.1936    9.4145 C   0  0  0  0  0  0  0  0  0  0  0  0
  -13.2544  -19.4497   10.1732 C   0  0  0  0  0  0  0  0  0  0  0  0
  -11.8731  -19.3506   10.5383 O   0  0  0  0  0  0  0  0  0  0  0  0
  -11.6148  -18.5085   11.5823 C   0  0  0  0  0  0  0  0  0  0  0  0
  -12.3947  -18.2810   12.5004 O   0  0  0  0  0  0  0  0  0  0  0  0
  -10.3031  -17.8985   11.4902 C   0  0  0  0  0  0  0  0  0  0  0  0
   -9.1673  -18.4974   10.9931 C   0  0  0  0  0  0  0  0  0  0  0  0
   -8.1448  -17.6055   11.0758 O   0  0  0  0  0  0  0  0  0  0  0  0
   -8.7110  -16.4917   11.6237 C   0  0  0  0  0  0  0  0  0  0  0  0
   -9.9933  -16.6110   11.8915 N   0  0  0  0  0  0  0  0  0  0  0  0
   -7.9611  -15.3718   11.8549 N   0  0  0  0  0  0  0  0  0  0  0  0
   -8.5046  -14.1249   12.0676 C   0  0  0  0  0  0  0  0  0  0  0  0
   -9.6950  -13.8313   12.1035 O   0  0  0  0  0  0  0  0  0  0  0  0
   -7.4448  -13.0785   12.3021 C   0  0  0  0  0  0  0  0  0  0  0  0
  1  2  1  0
  2  3  1  0
  3  4  1  0
  4  5  2  0
  4  6  1  0
  6  7  2  0
  6 10  1  0
  7  8  1  0
  8  9  1  0
  9 10  2  0
  9 11  1  0
 11 12  1  0
 12 13  2  0
 12 14  1  0
M  END
>  <Gold.Gold.Protein.RotatedWaterAtoms>  (579) 


>  <Gold.Id.Protein>  (579) 


>  <Gold.PLP.Chemscore.CHOScore>  (579) 
0.0000

>  <Gold.PLP.Chemscore.Hbond>  (579) 
2.0000

>  <Gold.PLP.Chemscore.Internal.Correction>  (579) 
0.0053

>  <Gold.PLP.Chemscore.Metal>  (579) 
0.0000

>  <Gold.PLP.Fitness>  (579) 
36.8047

>  <Gold.PLP.PLP>  (579) 
-32.7996

>  <Gold.PLP.ligand.clash>  (579) 
0.0000

>  <Gold.PLP.ligand.torsion>  (579) 
1.0001

>  <Gold.PLP.part.buried>  (579) 
-6.5206

>  <Gold.PLP.part.hbond>  (579) 
-2.9156

>  <Gold.PLP.part.metal>  (579) 
0.0000

>  <Gold.PLP.part.nonpolar>  (579) 
-23.4080

>  <Gold.PLP.part.repulsive>  (579) 
0.3100

>  <Gold.Protein.RotatedAtoms>  (579) 


>  <Gold.Protein.RotatedTorsions>  (579) 


>  <Gold.Protein.RotatedWaterAtoms>  (579) 


>  <Gold.Version>  (579) 
5.3.0

>  <PLP.Chemscore.CHOScore>  (579) 


>  <PLP.Chemscore.Hbond>  (579) 


>  <PLP.Chemscore.Internal.Correction>  (579) 


>  <PLP.Chemscore.Metal>  (579) 


>  <PLP.Fitness>  (579) 


>  <PLP.PLP>  (579) 


>  <PLP.ligand.clash>  (579) 


>  <PLP.ligand.torsion>  (579) 


>  <PLP.part.buried>  (579) 


>  <PLP.part.hbond>  (579) 


>  <PLP.part.metal>  (579) 


>  <PLP.part.nonpolar>  (579) 


>  <PLP.part.repulsive>  (579) 


>  <RMSD>  (579) 
0.499949349045

>  <Torsion>  (579) 
159.973716791

>  <TorsionO>  (579) 
19.1052109979

>  <TorsionR>  (579) 
179.078927789

>  <Version>  (579) 


>  <product>  (579) 
86|Compound_32|Compounds_3D_F|sdf|14|dock3|1

>  <rmsd>  (579) 
-1

$$$$
1884|M3006_1781|Aromatic_primary_amines_F|sdf|361|dock3|1
     RDKit          3D

 31 34  0  0  0  0  0  0  0  0999 V2000
  -14.4210  -19.8971    8.7934 C   0  0  0  0  0  0  0  0  0  0  0  0
  -13.9762  -19.4927   10.1894 C   0  0  0  0  0  0  0  0  0  0  0  0
  -14.1356  -20.6409   11.1817 C   0  0  0  0  0  0  0  0  0  0  0  0
  -13.5197  -20.3070   12.5189 C   0  0  0  0  0  0  0  0  0  0  0  0
  -12.9307  -19.2724   12.7954 O   0  0  0  0  0  0  0  0  0  0  0  0
  -13.7110  -21.3451   13.3845 O   0  0  0  0  0  0  0  0  0  0  0  0
  -12.9425  -21.2698   14.5900 C   0  0  0  0  0  0  0  0  0  0  0  0
  -12.8849  -22.6189   15.2889 C   0  0  0  0  0  0  0  0  0  0  0  0
  -11.6552  -22.4172   16.1494 C   0  0  0  0  0  0  0  0  0  0  0  0
  -11.2420  -23.7410   16.7624 C   0  0  0  0  0  0  0  0  0  0  0  0
  -12.3024  -24.2223   17.5862 O   0  0  0  0  0  0  0  0  0  0  0  0
  -13.7888  -24.3384   16.9603 P   0  0  0  0  0  0  0  0  0  0  0  0
  -14.8775  -24.6795   17.9243 O   0  0  0  0  0  0  0  0  0  0  0  0
  -13.9839  -22.9641   16.1174 O   0  0  0  0  0  0  0  0  0  0  0  0
  -13.5991  -25.4435   15.8075 O   0  0  0  0  0  0  0  0  0  0  0  0
  -10.6922  -21.8161   15.2889 O   0  0  0  0  0  0  0  0  0  0  0  0
  -11.4338  -20.9664   14.3653 C   0  0  0  0  0  0  0  0  0  0  0  0
  -10.9052  -21.2017   13.0342 N   0  0  0  0  0  0  0  0  0  0  0  0
  -10.7814  -22.4114   12.4013 C   0  0  0  0  0  0  0  0  0  0  0  0
  -10.2640  -22.2918   11.1953 N   0  0  0  0  0  0  0  0  0  0  0  0
  -10.0274  -20.9476   11.0424 C   0  0  0  0  0  0  0  0  0  0  0  0
  -10.4203  -20.2487   12.1733 C   0  0  0  0  0  0  0  0  0  0  0  0
  -10.3338  -18.9216   12.3641 N   0  0  0  0  0  0  0  0  0  0  0  0
   -9.8057  -18.2730   11.3024 C   0  0  0  0  0  0  0  0  0  0  0  0
   -9.3808  -18.8370   10.1545 N   0  0  0  0  0  0  0  0  0  0  0  0
   -9.4895  -20.1691   10.0244 C   0  0  0  0  0  0  0  0  0  0  0  0
   -9.0330  -20.6622    8.8349 O   0  0  0  0  0  0  0  0  0  0  0  0
   -9.7222  -16.8901   11.4793 N   0  0  0  0  0  0  0  0  0  0  0  0
   -8.5796  -16.1798   11.7761 C   0  0  0  0  0  0  0  0  0  0  0  0
   -7.4445  -16.6221   11.9131 O   0  0  0  0  0  0  0  0  0  0  0  0
   -8.8524  -14.7024   11.8973 C   0  0  0  0  0  0  0  0  0  0  0  0
  1  2  1  0
  2  3  1  0
  3  4  1  0
  4  5  2  0
  4  6  1  0
  6  7  1  0
  7  8  1  0
  7 17  1  0
  8  9  1  0
  8 14  1  0
  9 10  1  0
  9 16  1  0
 10 11  1  0
 11 12  1  0
 12 13  2  0
 12 14  1  0
 12 15  1  0
 16 17  1  0
 17 18  1  0
 18 19  1  0
 18 22  1  0
 19 20  2  0
 20 21  1  0
 21 22  2  0
 21 26  1  0
 22 23  1  0
 23 24  2  0
 24 25  1  0
 24 28  1  0
 25 26  2  0
 26 27  1  0
 28 29  1  0
 29 30  2  0
 29 31  1  0
M  END
>  <Gold.Gold.Protein.RotatedWaterAtoms>  (580) 


>  <Gold.Id.Protein>  (580) 


>  <Gold.PLP.Chemscore.CHOScore>  (580) 
0.0000

>  <Gold.PLP.Chemscore.Hbond>  (580) 
1.2080

>  <Gold.PLP.Chemscore.Internal.Correction>  (580) 
0.1232

>  <Gold.PLP.Chemscore.Metal>  (580) 
0.0000

>  <Gold.PLP.Fitness>  (580) 
47.7145

>  <Gold.PLP.PLP>  (580) 
-46.0218

>  <Gold.PLP.ligand.clash>  (580) 
0.0000

>  <Gold.PLP.ligand.torsion>  (580) 
1.0272

>  <Gold.PLP.part.buried>  (580) 
-2.2958

>  <Gold.PLP.part.hbond>  (580) 
-4.0214

>  <Gold.PLP.part.metal>  (580) 
0.0000

>  <Gold.PLP.part.nonpolar>  (580) 
-41.4699

>  <Gold.PLP.part.repulsive>  (580) 
0.9524

>  <Gold.Protein.RotatedAtoms>  (580) 


>  <Gold.Protein.RotatedTorsions>  (580) 


>  <Gold.Protein.RotatedWaterAtoms>  (580) 


>  <Gold.Version>  (580) 
5.3.0

>  <PLP.Chemscore.CHOScore>  (580) 


>  <PLP.Chemscore.Hbond>  (580) 


>  <PLP.Chemscore.Internal.Correction>  (580) 


>  <PLP.Chemscore.Metal>  (580) 


>  <PLP.Fitness>  (580) 


>  <PLP.PLP>  (580) 


>  <PLP.ligand.clash>  (580) 


>  <PLP.ligand.torsion>  (580) 


>  <PLP.part.buried>  (580) 


>  <PLP.part.hbond>  (580) 


>  <PLP.part.metal>  (580) 


>  <PLP.part.nonpolar>  (580) 


>  <PLP.part.repulsive>  (580) 


>  <RMSD>  (580) 
0.291955871297

>  <Torsion>  (580) 
171.923704933

>  <TorsionO>  (580) 
6.03609353985

>  <TorsionR>  (580) 
177.959798473

>  <Version>  (580) 


>  <product>  (580) 
86|Compound_32|Compounds_3D_F|sdf|14|dock3|1

>  <rmsd>  (580) 
-1

$$$$
193|32168_281|Aromatic_primary_amines_F|sdf|39|dock6|1
     RDKit          3D

 23 25  0  0  0  0  0  0  0  0999 V2000
   -7.8439  -12.1461   11.8919 C   0  0  0  0  0  0  0  0  0  0  0  0
   -8.5691  -13.4472   11.6781 C   0  0  0  0  0  0  0  0  0  0  0  0
   -9.7886  -13.4981   11.5208 O   0  0  0  0  0  0  0  0  0  0  0  0
   -7.7264  -14.5390   11.7020 N   0  0  0  0  0  0  0  0  0  0  0  0
   -8.1889  -15.8197   11.5323 C   0  0  0  0  0  0  0  0  0  0  0  0
   -9.4747  -16.2039   11.8163 N   0  0  0  0  0  0  0  0  0  0  0  0
   -9.5964  -17.5375   11.5379 C   0  0  0  0  0  0  0  0  0  0  0  0
  -10.6643  -18.4283   11.6415 C   0  0  0  0  0  0  0  0  0  0  0  0
  -10.4051  -19.7586   11.2778 C   0  0  0  0  0  0  0  0  0  0  0  0
   -9.1530  -20.1507   10.7795 C   0  0  0  0  0  0  0  0  0  0  0  0
   -8.1017  -19.2294   10.6839 C   0  0  0  0  0  0  0  0  0  0  0  0
   -8.3349  -17.9032   11.0783 C   0  0  0  0  0  0  0  0  0  0  0  0
   -7.4773  -16.8281   11.0838 N   0  0  0  0  0  0  0  0  0  0  0  0
   -8.8530  -21.7658   10.2429 Cl  0  0  0  0  0  0  0  0  0  0  0  0
  -11.4669  -20.6323   11.3734 O   0  0  0  0  0  0  0  0  0  0  0  0
  -12.5262  -20.4408   10.5053 C   0  0  0  0  0  0  0  0  0  0  0  0
  -13.3188  -19.2846   10.5304 C   0  0  0  0  0  0  0  0  0  0  0  0
  -14.3665  -19.1344    9.6224 C   0  0  0  0  0  0  0  0  0  0  0  0
  -14.6219  -20.1279    8.6796 C   0  0  0  0  0  0  0  0  0  0  0  0
  -13.8238  -21.2756    8.6345 C   0  0  0  0  0  0  0  0  0  0  0  0
  -12.7674  -21.4342    9.5416 C   0  0  0  0  0  0  0  0  0  0  0  0
  -11.7588  -22.8458    9.4996 Cl  0  0  0  0  0  0  0  0  0  0  0  0
  -14.1988  -22.4584    7.4296 Cl  0  0  0  0  0  0  0  0  0  0  0  0
  1  2  1  0
  2  3  2  0
  2  4  1  0
  4  5  1  0
  5  6  1  0
  5 13  2  0
  6  7  1  0
  7  8  2  0
  7 12  1  0
  8  9  1  0
  9 10  2  0
  9 15  1  0
 10 11  1  0
 10 14  1  0
 11 12  2  0
 12 13  1  0
 15 16  1  0
 16 17  2  0
 16 21  1  0
 17 18  1  0
 18 19  2  0
 19 20  1  0
 20 21  2  0
 20 23  1  0
 21 22  1  0
M  END
>  <Gold.Gold.Protein.RotatedWaterAtoms>  (581) 


>  <Gold.Id.Protein>  (581) 


>  <Gold.PLP.Chemscore.CHOScore>  (581) 
0.0000

>  <Gold.PLP.Chemscore.Hbond>  (581) 
1.0000

>  <Gold.PLP.Chemscore.Internal.Correction>  (581) 
0.0086

>  <Gold.PLP.Chemscore.Metal>  (581) 
0.0000

>  <Gold.PLP.Fitness>  (581) 
50.7139

>  <Gold.PLP.PLP>  (581) 
-48.1706

>  <Gold.PLP.ligand.clash>  (581) 
0.0000

>  <Gold.PLP.ligand.torsion>  (581) 
0.2327

>  <Gold.PLP.part.buried>  (581) 
-6.5205

>  <Gold.PLP.part.hbond>  (581) 
-2.0000

>  <Gold.PLP.part.metal>  (581) 
0.0000

>  <Gold.PLP.part.nonpolar>  (581) 
-39.3857

>  <Gold.PLP.part.repulsive>  (581) 
0.3298

>  <Gold.Protein.RotatedAtoms>  (581) 


>  <Gold.Protein.RotatedTorsions>  (581) 


>  <Gold.Protein.RotatedWaterAtoms>  (581) 


>  <Gold.Version>  (581) 
5.3.0

>  <PLP.Chemscore.CHOScore>  (581) 


>  <PLP.Chemscore.Hbond>  (581) 


>  <PLP.Chemscore.Internal.Correction>  (581) 


>  <PLP.Chemscore.Metal>  (581) 


>  <PLP.Fitness>  (581) 


>  <PLP.PLP>  (581) 


>  <PLP.ligand.clash>  (581) 


>  <PLP.ligand.torsion>  (581) 


>  <PLP.part.buried>  (581) 


>  <PLP.part.hbond>  (581) 


>  <PLP.part.metal>  (581) 


>  <PLP.part.nonpolar>  (581) 


>  <PLP.part.repulsive>  (581) 


>  <RMSD>  (581) 
0.439733510035

>  <Torsion>  (581) 
177.672185574

>  <TorsionO>  (581) 
4.31728583372

>  <TorsionR>  (581) 
173.35489974

>  <Version>  (581) 


>  <product>  (581) 
86|Compound_32|Compounds_3D_F|sdf|14|dock3|1

>  <rmsd>  (581) 
-1

$$$$
58|Compound_24|Compounds_3D_F|sdf|10|dock5|1
     RDKit          3D

 10  9  0  0  0  0  0  0  0  0999 V2000
   -4.5896  -12.3689   13.1841 O   0  0  0  0  0  0  0  0  0  0  0  0
   -5.7666  -12.3652   12.5404 C   0  0  0  0  0  0  0  0  0  0  0  0
   -6.1030  -11.3968   11.8997 O   0  0  0  0  0  0  0  0  0  0  0  0
   -6.6710  -13.5685   12.6162 C   0  0  0  0  0  0  0  0  0  0  0  0
   -7.8520  -13.3802   11.6614 C   0  0  0  0  0  0  0  0  0  0  0  0
   -5.8883  -14.8215   12.2186 C   0  0  0  0  0  0  0  0  0  0  0  0
   -5.6292  -14.7987   10.7764 N   0  0  0  0  0  0  0  0  0  0  0  0
   -6.4000  -15.5248    9.9423 C   0  0  0  0  0  0  0  0  0  0  0  0
   -7.3072  -16.1960   10.3853 O   0  0  0  0  0  0  0  0  0  0  0  0
   -6.1223  -15.5003    8.3973 B   0  0  0  0  0  0  0  0  0  0  0  0
  1  2  1  0
  2  3  2  0
  2  4  1  0
  4  5  1  0
  4  6  1  0
  6  7  1  0
  7  8  1  0
  8  9  2  0
  8 10  1  0
M  END
>  <Gold.Gold.Protein.RotatedWaterAtoms>  (582) 


>  <Gold.Id.Protein>  (582) 


>  <Gold.PLP.Chemscore.CHOScore>  (582) 
0.0000

>  <Gold.PLP.Chemscore.Hbond>  (582) 
2.0000

>  <Gold.PLP.Chemscore.Internal.Correction>  (582) 
0.0011

>  <Gold.PLP.Chemscore.Metal>  (582) 
0.0000

>  <Gold.PLP.Fitness>  (582) 
34.6748

>  <Gold.PLP.PLP>  (582) 
-29.2930

>  <Gold.PLP.ligand.clash>  (582) 
0.0000

>  <Gold.PLP.ligand.torsion>  (582) 
0.3097

>  <Gold.PLP.part.buried>  (582) 
-5.9459

>  <Gold.PLP.part.hbond>  (582) 
-4.3465

>  <Gold.PLP.part.metal>  (582) 
0.0000

>  <Gold.PLP.part.nonpolar>  (582) 
-19.5328

>  <Gold.PLP.part.repulsive>  (582) 
0.5685

>  <Gold.Protein.RotatedAtoms>  (582) 


>  <Gold.Protein.RotatedTorsions>  (582) 


>  <Gold.Protein.RotatedWaterAtoms>  (582) 


>  <Gold.Version>  (582) 
5.3.0

>  <PLP.Chemscore.CHOScore>  (582) 


>  <PLP.Chemscore.Hbond>  (582) 


>  <PLP.Chemscore.Internal.Correction>  (582) 


>  <PLP.Chemscore.Metal>  (582) 


>  <PLP.Fitness>  (582) 


>  <PLP.PLP>  (582) 


>  <PLP.ligand.clash>  (582) 


>  <PLP.ligand.torsion>  (582) 


>  <PLP.part.buried>  (582) 


>  <PLP.part.hbond>  (582) 


>  <PLP.part.metal>  (582) 


>  <PLP.part.nonpolar>  (582) 


>  <PLP.part.repulsive>  (582) 


>  <Version>  (582) 


$$$$
94|664022_40|Aromatic_carboxylic_acids_F|sdf|24|dock1|1
     RDKit          3D

 12 12  0  0  0  0  0  0  0  0999 V2000
   -8.2596  -17.1212   11.4595 C   0  0  0  0  0  0  0  0  0  0  0  0
   -7.6366  -15.8367   11.6688 N   0  0  0  0  0  0  0  0  0  0  0  0
   -8.3409  -14.6553   11.5719 C   0  0  0  0  0  0  0  0  0  0  0  0
   -9.5296  -14.5547   11.2978 O   0  0  0  0  0  0  0  0  0  0  0  0
   -7.5420  -13.4431   11.8503 C   0  0  0  0  0  0  0  0  0  0  0  0
   -8.1627  -12.1983   11.6738 C   0  0  0  0  0  0  0  0  0  0  0  0
   -7.4390  -11.0301   11.9055 C   0  0  0  0  0  0  0  0  0  0  0  0
   -6.1069  -11.0910   12.3103 C   0  0  0  0  0  0  0  0  0  0  0  0
   -5.4897  -12.3324   12.4853 C   0  0  0  0  0  0  0  0  0  0  0  0
   -6.2035  -13.5136   12.2549 C   0  0  0  0  0  0  0  0  0  0  0  0
   -5.3062  -15.1564   12.5638 Br  0  0  0  0  0  0  0  0  0  0  0  0
   -8.1960   -9.5005   11.6887 Cl  0  0  0  0  0  0  0  0  0  0  0  0
  1  2  1  0
  2  3  1  0
  3  4  2  0
  3  5  1  0
  5  6  2  0
  5 10  1  0
  6  7  1  0
  7  8  2  0
  7 12  1  0
  8  9  1  0
  9 10  2  0
 10 11  1  0
M  END
>  <Gold.Gold.Protein.RotatedWaterAtoms>  (583) 


>  <Gold.Id.Protein>  (583) 


>  <Gold.PLP.Chemscore.CHOScore>  (583) 
0.0000

>  <Gold.PLP.Chemscore.Hbond>  (583) 
0.4160

>  <Gold.PLP.Chemscore.Internal.Correction>  (583) 
0.0004

>  <Gold.PLP.Chemscore.Metal>  (583) 
0.0000

>  <Gold.PLP.Fitness>  (583) 
48.9046

>  <Gold.PLP.PLP>  (583) 
-47.6744

>  <Gold.PLP.ligand.clash>  (583) 
0.0000

>  <Gold.PLP.ligand.torsion>  (583) 
0.0091

>  <Gold.PLP.part.buried>  (583) 
-7.3578

>  <Gold.PLP.part.hbond>  (583) 
-0.5127

>  <Gold.PLP.part.metal>  (583) 
0.0000

>  <Gold.PLP.part.nonpolar>  (583) 
-40.3098

>  <Gold.PLP.part.repulsive>  (583) 
0.1684

>  <Gold.Protein.RotatedAtoms>  (583) 


>  <Gold.Protein.RotatedTorsions>  (583) 


>  <Gold.Protein.RotatedWaterAtoms>  (583) 


>  <Gold.Version>  (583) 
5.3.0

>  <PLP.Chemscore.CHOScore>  (583) 


>  <PLP.Chemscore.Hbond>  (583) 


>  <PLP.Chemscore.Internal.Correction>  (583) 


>  <PLP.Chemscore.Metal>  (583) 


>  <PLP.Fitness>  (583) 


>  <PLP.PLP>  (583) 


>  <PLP.ligand.clash>  (583) 


>  <PLP.ligand.torsion>  (583) 


>  <PLP.part.buried>  (583) 


>  <PLP.part.hbond>  (583) 


>  <PLP.part.metal>  (583) 


>  <PLP.part.nonpolar>  (583) 


>  <PLP.part.repulsive>  (583) 


>  <RMSD>  (583) 
0.30972197429

>  <Torsion>  (583) 
172.929186758

>  <TorsionO>  (583) 
24.4968065243

>  <TorsionR>  (583) 
162.574006718

>  <Version>  (583) 


>  <product>  (583) 
58|Compound_24|Compounds_3D_F|sdf|10|dock5|1

>  <rmsd>  (583) 
-1

$$$$
110|565385_49|Aromatic_carboxylic_acids_F|sdf|29|dock1|1
     RDKit          3D

 13 13  0  0  0  0  0  0  0  0999 V2000
  -10.1118  -17.9021   11.6320 C   0  0  0  0  0  0  0  0  0  0  0  0
   -9.7537  -16.5043   11.6546 N   0  0  0  0  0  0  0  0  0  0  0  0
   -8.4330  -16.1187   11.7930 C   0  0  0  0  0  0  0  0  0  0  0  0
   -7.5159  -16.9298   11.9008 O   0  0  0  0  0  0  0  0  0  0  0  0
   -8.1234  -14.6552   11.8105 C   0  0  0  0  0  0  0  0  0  0  0  0
   -9.0636  -13.6551   11.5375 C   0  0  0  0  0  0  0  0  0  0  0  0
   -8.6966  -12.3009   11.5726 C   0  0  0  0  0  0  0  0  0  0  0  0
   -7.3879  -11.9195   11.8809 C   0  0  0  0  0  0  0  0  0  0  0  0
   -6.4486  -12.9235   12.1551 C   0  0  0  0  0  0  0  0  0  0  0  0
   -6.8098  -14.2750   12.1207 C   0  0  0  0  0  0  0  0  0  0  0  0
   -4.6444  -12.5025   12.5849 Br  0  0  0  0  0  0  0  0  0  0  0  0
   -6.9476  -10.6242   11.9372 O   0  0  0  0  0  0  0  0  0  0  0  0
   -7.9020   -9.5910   11.7256 C   0  0  0  0  0  0  0  0  0  0  0  0
  1  2  1  0
  2  3  1  0
  3  4  2  0
  3  5  1  0
  5  6  2  0
  5 10  1  0
  6  7  1  0
  7  8  2  0
  8  9  1  0
  8 12  1  0
  9 10  2  0
  9 11  1  0
 12 13  1  0
M  END
>  <Gold.Gold.Protein.RotatedWaterAtoms>  (584) 


>  <Gold.Id.Protein>  (584) 


>  <Gold.PLP.Chemscore.CHOScore>  (584) 
0.0000

>  <Gold.PLP.Chemscore.Hbond>  (584) 
1.0000

>  <Gold.PLP.Chemscore.Internal.Correction>  (584) 
0.0000

>  <Gold.PLP.Chemscore.Metal>  (584) 
0.0000

>  <Gold.PLP.Fitness>  (584) 
43.9775

>  <Gold.PLP.PLP>  (584) 
-41.0517

>  <Gold.PLP.ligand.clash>  (584) 
0.0000

>  <Gold.PLP.ligand.torsion>  (584) 
0.0371

>  <Gold.PLP.part.buried>  (584) 
-3.7367

>  <Gold.PLP.part.hbond>  (584) 
-1.0000

>  <Gold.PLP.part.metal>  (584) 
0.0000

>  <Gold.PLP.part.nonpolar>  (584) 
-36.7483

>  <Gold.PLP.part.repulsive>  (584) 
0.4054

>  <Gold.Protein.RotatedAtoms>  (584) 


>  <Gold.Protein.RotatedTorsions>  (584) 


>  <Gold.Protein.RotatedWaterAtoms>  (584) 


>  <Gold.Version>  (584) 
5.3.0

>  <PLP.Chemscore.CHOScore>  (584) 


>  <PLP.Chemscore.Hbond>  (584) 


>  <PLP.Chemscore.Internal.Correction>  (584) 


>  <PLP.Chemscore.Metal>  (584) 


>  <PLP.Fitness>  (584) 


>  <PLP.PLP>  (584) 


>  <PLP.ligand.clash>  (584) 


>  <PLP.ligand.torsion>  (584) 


>  <PLP.part.buried>  (584) 


>  <PLP.part.hbond>  (584) 


>  <PLP.part.metal>  (584) 


>  <PLP.part.nonpolar>  (584) 


>  <PLP.part.repulsive>  (584) 


>  <RMSD>  (584) 
0.319376411377

>  <Torsion>  (584) 
169.460450784

>  <TorsionO>  (584) 
9.7963905484

>  <TorsionR>  (584) 
179.256841332

>  <Version>  (584) 


>  <product>  (584) 
58|Compound_24|Compounds_3D_F|sdf|10|dock5|1

>  <rmsd>  (584) 
-1

$$$$
128|137677_56|Aromatic_carboxylic_acids_F|sdf|33|dock1|1
     RDKit          3D

 11 11  0  0  0  0  0  0  0  0999 V2000
   -8.6116  -16.1544   11.8887 C   0  0  0  0  0  0  0  0  0  0  0  0
   -7.9978  -14.8484   11.9215 N   0  0  0  0  0  0  0  0  0  0  0  0
   -8.7778  -13.7008   11.8756 C   0  0  0  0  0  0  0  0  0  0  0  0
  -10.0002  -13.7896   11.8139 O   0  0  0  0  0  0  0  0  0  0  0  0
   -8.0808  -12.3609   11.9017 C   0  0  0  0  0  0  0  0  0  0  0  0
   -8.7916  -11.1851   11.5813 C   0  0  0  0  0  0  0  0  0  0  0  0
   -8.1781   -9.9267   11.5989 C   0  0  0  0  0  0  0  0  0  0  0  0
   -6.8391   -9.8089   11.9369 C   0  0  0  0  0  0  0  0  0  0  0  0
   -6.1124  -10.9502   12.2575 C   0  0  0  0  0  0  0  0  0  0  0  0
   -6.7171  -12.2196   12.2428 C   0  0  0  0  0  0  0  0  0  0  0  0
   -5.5419  -13.6455   12.7121 Br  0  0  0  0  0  0  0  0  0  0  0  0
  1  2  1  0
  2  3  1  0
  3  4  2  0
  3  5  1  0
  5  6  2  0
  5 10  1  0
  6  7  1  0
  7  8  2  0
  8  9  1  0
  9 10  2  0
 10 11  1  0
M  END
>  <Gold.Gold.Protein.RotatedWaterAtoms>  (585) 


>  <Gold.Id.Protein>  (585) 


>  <Gold.PLP.Chemscore.CHOScore>  (585) 
0.0000

>  <Gold.PLP.Chemscore.Hbond>  (585) 
1.0000

>  <Gold.PLP.Chemscore.Internal.Correction>  (585) 
0.0000

>  <Gold.PLP.Chemscore.Metal>  (585) 
0.0000

>  <Gold.PLP.Fitness>  (585) 
45.2899

>  <Gold.PLP.PLP>  (585) 
-42.4444

>  <Gold.PLP.ligand.clash>  (585) 
0.0000

>  <Gold.PLP.ligand.torsion>  (585) 
0.0772

>  <Gold.PLP.part.buried>  (585) 
-6.4690

>  <Gold.PLP.part.hbond>  (585) 
-0.6863

>  <Gold.PLP.part.metal>  (585) 
0.0000

>  <Gold.PLP.part.nonpolar>  (585) 
-34.8280

>  <Gold.PLP.part.repulsive>  (585) 
0.1963

>  <Gold.Protein.RotatedAtoms>  (585) 


>  <Gold.Protein.RotatedTorsions>  (585) 


>  <Gold.Protein.RotatedWaterAtoms>  (585) 


>  <Gold.Version>  (585) 
5.3.0

>  <PLP.Chemscore.CHOScore>  (585) 


>  <PLP.Chemscore.Hbond>  (585) 


>  <PLP.Chemscore.Internal.Correction>  (585) 


>  <PLP.Chemscore.Metal>  (585) 


>  <PLP.Fitness>  (585) 


>  <PLP.PLP>  (585) 


>  <PLP.ligand.clash>  (585) 


>  <PLP.ligand.torsion>  (585) 


>  <PLP.part.buried>  (585) 


>  <PLP.part.hbond>  (585) 


>  <PLP.part.metal>  (585) 


>  <PLP.part.nonpolar>  (585) 


>  <PLP.part.repulsive>  (585) 


>  <RMSD>  (585) 
0.428070490903

>  <Torsion>  (585) 
152.444048788

>  <TorsionO>  (585) 
39.0580871276

>  <TorsionR>  (585) 
168.497864085

>  <Version>  (585) 


>  <product>  (585) 
58|Compound_24|Compounds_3D_F|sdf|10|dock5|1

>  <rmsd>  (585) 
-1

$$$$
974|750794_1404|Aromatic_primary_amines_F|sdf|194|dock3|1
     RDKit          3D

 14 14  0  0  0  0  0  0  0  0999 V2000
  -13.6355  -18.1936    9.4145 C   0  0  0  0  0  0  0  0  0  0  0  0
  -13.2544  -19.4497   10.1732 C   0  0  0  0  0  0  0  0  0  0  0  0
  -11.8731  -19.3506   10.5383 O   0  0  0  0  0  0  0  0  0  0  0  0
  -11.6148  -18.5085   11.5823 C   0  0  0  0  0  0  0  0  0  0  0  0
  -12.3947  -18.2810   12.5004 O   0  0  0  0  0  0  0  0  0  0  0  0
  -10.3031  -17.8985   11.4902 C   0  0  0  0  0  0  0  0  0  0  0  0
   -9.1673  -18.4974   10.9931 C   0  0  0  0  0  0  0  0  0  0  0  0
   -8.1448  -17.6055   11.0758 O   0  0  0  0  0  0  0  0  0  0  0  0
   -8.7110  -16.4917   11.6237 C   0  0  0  0  0  0  0  0  0  0  0  0
   -9.9933  -16.6110   11.8915 N   0  0  0  0  0  0  0  0  0  0  0  0
   -7.9611  -15.3718   11.8549 N   0  0  0  0  0  0  0  0  0  0  0  0
   -8.5046  -14.1249   12.0676 C   0  0  0  0  0  0  0  0  0  0  0  0
   -9.6950  -13.8313   12.1035 O   0  0  0  0  0  0  0  0  0  0  0  0
   -7.4448  -13.0785   12.3021 C   0  0  0  0  0  0  0  0  0  0  0  0
  1  2  1  0
  2  3  1  0
  3  4  1  0
  4  5  2  0
  4  6  1  0
  6  7  2  0
  6 10  1  0
  7  8  1  0
  8  9  1  0
  9 10  2  0
  9 11  1  0
 11 12  1  0
 12 13  2  0
 12 14  1  0
M  END
>  <Gold.Gold.Protein.RotatedWaterAtoms>  (586) 


>  <Gold.Id.Protein>  (586) 


>  <Gold.PLP.Chemscore.CHOScore>  (586) 
0.0000

>  <Gold.PLP.Chemscore.Hbond>  (586) 
2.0000

>  <Gold.PLP.Chemscore.Internal.Correction>  (586) 
0.0053

>  <Gold.PLP.Chemscore.Metal>  (586) 
0.0000

>  <Gold.PLP.Fitness>  (586) 
36.8047

>  <Gold.PLP.PLP>  (586) 
-32.7996

>  <Gold.PLP.ligand.clash>  (586) 
0.0000

>  <Gold.PLP.ligand.torsion>  (586) 
1.0001

>  <Gold.PLP.part.buried>  (586) 
-6.5206

>  <Gold.PLP.part.hbond>  (586) 
-2.9156

>  <Gold.PLP.part.metal>  (586) 
0.0000

>  <Gold.PLP.part.nonpolar>  (586) 
-23.4080

>  <Gold.PLP.part.repulsive>  (586) 
0.3100

>  <Gold.Protein.RotatedAtoms>  (586) 


>  <Gold.Protein.RotatedTorsions>  (586) 


>  <Gold.Protein.RotatedWaterAtoms>  (586) 


>  <Gold.Version>  (586) 
5.3.0

>  <PLP.Chemscore.CHOScore>  (586) 


>  <PLP.Chemscore.Hbond>  (586) 


>  <PLP.Chemscore.Internal.Correction>  (586) 


>  <PLP.Chemscore.Metal>  (586) 


>  <PLP.Fitness>  (586) 


>  <PLP.PLP>  (586) 


>  <PLP.ligand.clash>  (586) 


>  <PLP.ligand.torsion>  (586) 


>  <PLP.part.buried>  (586) 


>  <PLP.part.hbond>  (586) 


>  <PLP.part.metal>  (586) 


>  <PLP.part.nonpolar>  (586) 


>  <PLP.part.repulsive>  (586) 


>  <RMSD>  (586) 
0.499949349045

>  <Torsion>  (586) 
159.973716791

>  <TorsionO>  (586) 
19.1052109979

>  <TorsionR>  (586) 
179.078927789

>  <Version>  (586) 


>  <product>  (586) 
58|Compound_24|Compounds_3D_F|sdf|10|dock5|1

>  <rmsd>  (586) 
-1

$$$$
1884|M3006_1781|Aromatic_primary_amines_F|sdf|361|dock3|1
     RDKit          3D

 31 34  0  0  0  0  0  0  0  0999 V2000
  -14.4210  -19.8971    8.7934 C   0  0  0  0  0  0  0  0  0  0  0  0
  -13.9762  -19.4927   10.1894 C   0  0  0  0  0  0  0  0  0  0  0  0
  -14.1356  -20.6409   11.1817 C   0  0  0  0  0  0  0  0  0  0  0  0
  -13.5197  -20.3070   12.5189 C   0  0  0  0  0  0  0  0  0  0  0  0
  -12.9307  -19.2724   12.7954 O   0  0  0  0  0  0  0  0  0  0  0  0
  -13.7110  -21.3451   13.3845 O   0  0  0  0  0  0  0  0  0  0  0  0
  -12.9425  -21.2698   14.5900 C   0  0  0  0  0  0  0  0  0  0  0  0
  -12.8849  -22.6189   15.2889 C   0  0  0  0  0  0  0  0  0  0  0  0
  -11.6552  -22.4172   16.1494 C   0  0  0  0  0  0  0  0  0  0  0  0
  -11.2420  -23.7410   16.7624 C   0  0  0  0  0  0  0  0  0  0  0  0
  -12.3024  -24.2223   17.5862 O   0  0  0  0  0  0  0  0  0  0  0  0
  -13.7888  -24.3384   16.9603 P   0  0  0  0  0  0  0  0  0  0  0  0
  -14.8775  -24.6795   17.9243 O   0  0  0  0  0  0  0  0  0  0  0  0
  -13.9839  -22.9641   16.1174 O   0  0  0  0  0  0  0  0  0  0  0  0
  -13.5991  -25.4435   15.8075 O   0  0  0  0  0  0  0  0  0  0  0  0
  -10.6922  -21.8161   15.2889 O   0  0  0  0  0  0  0  0  0  0  0  0
  -11.4338  -20.9664   14.3653 C   0  0  0  0  0  0  0  0  0  0  0  0
  -10.9052  -21.2017   13.0342 N   0  0  0  0  0  0  0  0  0  0  0  0
  -10.7814  -22.4114   12.4013 C   0  0  0  0  0  0  0  0  0  0  0  0
  -10.2640  -22.2918   11.1953 N   0  0  0  0  0  0  0  0  0  0  0  0
  -10.0274  -20.9476   11.0424 C   0  0  0  0  0  0  0  0  0  0  0  0
  -10.4203  -20.2487   12.1733 C   0  0  0  0  0  0  0  0  0  0  0  0
  -10.3338  -18.9216   12.3641 N   0  0  0  0  0  0  0  0  0  0  0  0
   -9.8057  -18.2730   11.3024 C   0  0  0  0  0  0  0  0  0  0  0  0
   -9.3808  -18.8370   10.1545 N   0  0  0  0  0  0  0  0  0  0  0  0
   -9.4895  -20.1691   10.0244 C   0  0  0  0  0  0  0  0  0  0  0  0
   -9.0330  -20.6622    8.8349 O   0  0  0  0  0  0  0  0  0  0  0  0
   -9.7222  -16.8901   11.4793 N   0  0  0  0  0  0  0  0  0  0  0  0
   -8.5796  -16.1798   11.7761 C   0  0  0  0  0  0  0  0  0  0  0  0
   -7.4445  -16.6221   11.9131 O   0  0  0  0  0  0  0  0  0  0  0  0
   -8.8524  -14.7024   11.8973 C   0  0  0  0  0  0  0  0  0  0  0  0
  1  2  1  0
  2  3  1  0
  3  4  1  0
  4  5  2  0
  4  6  1  0
  6  7  1  0
  7  8  1  0
  7 17  1  0
  8  9  1  0
  8 14  1  0
  9 10  1  0
  9 16  1  0
 10 11  1  0
 11 12  1  0
 12 13  2  0
 12 14  1  0
 12 15  1  0
 16 17  1  0
 17 18  1  0
 18 19  1  0
 18 22  1  0
 19 20  2  0
 20 21  1  0
 21 22  2  0
 21 26  1  0
 22 23  1  0
 23 24  2  0
 24 25  1  0
 24 28  1  0
 25 26  2  0
 26 27  1  0
 28 29  1  0
 29 30  2  0
 29 31  1  0
M  END
>  <Gold.Gold.Protein.RotatedWaterAtoms>  (587) 


>  <Gold.Id.Protein>  (587) 


>  <Gold.PLP.Chemscore.CHOScore>  (587) 
0.0000

>  <Gold.PLP.Chemscore.Hbond>  (587) 
1.2080

>  <Gold.PLP.Chemscore.Internal.Correction>  (587) 
0.1232

>  <Gold.PLP.Chemscore.Metal>  (587) 
0.0000

>  <Gold.PLP.Fitness>  (587) 
47.7145

>  <Gold.PLP.PLP>  (587) 
-46.0218

>  <Gold.PLP.ligand.clash>  (587) 
0.0000

>  <Gold.PLP.ligand.torsion>  (587) 
1.0272

>  <Gold.PLP.part.buried>  (587) 
-2.2958

>  <Gold.PLP.part.hbond>  (587) 
-4.0214

>  <Gold.PLP.part.metal>  (587) 
0.0000

>  <Gold.PLP.part.nonpolar>  (587) 
-41.4699

>  <Gold.PLP.part.repulsive>  (587) 
0.9524

>  <Gold.Protein.RotatedAtoms>  (587) 


>  <Gold.Protein.RotatedTorsions>  (587) 


>  <Gold.Protein.RotatedWaterAtoms>  (587) 


>  <Gold.Version>  (587) 
5.3.0

>  <PLP.Chemscore.CHOScore>  (587) 


>  <PLP.Chemscore.Hbond>  (587) 


>  <PLP.Chemscore.Internal.Correction>  (587) 


>  <PLP.Chemscore.Metal>  (587) 


>  <PLP.Fitness>  (587) 


>  <PLP.PLP>  (587) 


>  <PLP.ligand.clash>  (587) 


>  <PLP.ligand.torsion>  (587) 


>  <PLP.part.buried>  (587) 


>  <PLP.part.hbond>  (587) 


>  <PLP.part.metal>  (587) 


>  <PLP.part.nonpolar>  (587) 


>  <PLP.part.repulsive>  (587) 


>  <RMSD>  (587) 
0.291955871297

>  <Torsion>  (587) 
171.923704933

>  <TorsionO>  (587) 
6.03609353985

>  <TorsionR>  (587) 
177.959798473

>  <Version>  (587) 


>  <product>  (587) 
58|Compound_24|Compounds_3D_F|sdf|10|dock5|1

>  <rmsd>  (587) 
-1

$$$$
193|32168_281|Aromatic_primary_amines_F|sdf|39|dock6|1
     RDKit          3D

 23 25  0  0  0  0  0  0  0  0999 V2000
   -7.8439  -12.1461   11.8919 C   0  0  0  0  0  0  0  0  0  0  0  0
   -8.5691  -13.4472   11.6781 C   0  0  0  0  0  0  0  0  0  0  0  0
   -9.7886  -13.4981   11.5208 O   0  0  0  0  0  0  0  0  0  0  0  0
   -7.7264  -14.5390   11.7020 N   0  0  0  0  0  0  0  0  0  0  0  0
   -8.1889  -15.8197   11.5323 C   0  0  0  0  0  0  0  0  0  0  0  0
   -9.4747  -16.2039   11.8163 N   0  0  0  0  0  0  0  0  0  0  0  0
   -9.5964  -17.5375   11.5379 C   0  0  0  0  0  0  0  0  0  0  0  0
  -10.6643  -18.4283   11.6415 C   0  0  0  0  0  0  0  0  0  0  0  0
  -10.4051  -19.7586   11.2778 C   0  0  0  0  0  0  0  0  0  0  0  0
   -9.1530  -20.1507   10.7795 C   0  0  0  0  0  0  0  0  0  0  0  0
   -8.1017  -19.2294   10.6839 C   0  0  0  0  0  0  0  0  0  0  0  0
   -8.3349  -17.9032   11.0783 C   0  0  0  0  0  0  0  0  0  0  0  0
   -7.4773  -16.8281   11.0838 N   0  0  0  0  0  0  0  0  0  0  0  0
   -8.8530  -21.7658   10.2429 Cl  0  0  0  0  0  0  0  0  0  0  0  0
  -11.4669  -20.6323   11.3734 O   0  0  0  0  0  0  0  0  0  0  0  0
  -12.5262  -20.4408   10.5053 C   0  0  0  0  0  0  0  0  0  0  0  0
  -13.3188  -19.2846   10.5304 C   0  0  0  0  0  0  0  0  0  0  0  0
  -14.3665  -19.1344    9.6224 C   0  0  0  0  0  0  0  0  0  0  0  0
  -14.6219  -20.1279    8.6796 C   0  0  0  0  0  0  0  0  0  0  0  0
  -13.8238  -21.2756    8.6345 C   0  0  0  0  0  0  0  0  0  0  0  0
  -12.7674  -21.4342    9.5416 C   0  0  0  0  0  0  0  0  0  0  0  0
  -11.7588  -22.8458    9.4996 Cl  0  0  0  0  0  0  0  0  0  0  0  0
  -14.1988  -22.4584    7.4296 Cl  0  0  0  0  0  0  0  0  0  0  0  0
  1  2  1  0
  2  3  2  0
  2  4  1  0
  4  5  1  0
  5  6  1  0
  5 13  2  0
  6  7  1  0
  7  8  2  0
  7 12  1  0
  8  9  1  0
  9 10  2  0
  9 15  1  0
 10 11  1  0
 10 14  1  0
 11 12  2  0
 12 13  1  0
 15 16  1  0
 16 17  2  0
 16 21  1  0
 17 18  1  0
 18 19  2  0
 19 20  1  0
 20 21  2  0
 20 23  1  0
 21 22  1  0
M  END
>  <Gold.Gold.Protein.RotatedWaterAtoms>  (588) 


>  <Gold.Id.Protein>  (588) 


>  <Gold.PLP.Chemscore.CHOScore>  (588) 
0.0000

>  <Gold.PLP.Chemscore.Hbond>  (588) 
1.0000

>  <Gold.PLP.Chemscore.Internal.Correction>  (588) 
0.0086

>  <Gold.PLP.Chemscore.Metal>  (588) 
0.0000

>  <Gold.PLP.Fitness>  (588) 
50.7139

>  <Gold.PLP.PLP>  (588) 
-48.1706

>  <Gold.PLP.ligand.clash>  (588) 
0.0000

>  <Gold.PLP.ligand.torsion>  (588) 
0.2327

>  <Gold.PLP.part.buried>  (588) 
-6.5205

>  <Gold.PLP.part.hbond>  (588) 
-2.0000

>  <Gold.PLP.part.metal>  (588) 
0.0000

>  <Gold.PLP.part.nonpolar>  (588) 
-39.3857

>  <Gold.PLP.part.repulsive>  (588) 
0.3298

>  <Gold.Protein.RotatedAtoms>  (588) 


>  <Gold.Protein.RotatedTorsions>  (588) 


>  <Gold.Protein.RotatedWaterAtoms>  (588) 


>  <Gold.Version>  (588) 
5.3.0

>  <PLP.Chemscore.CHOScore>  (588) 


>  <PLP.Chemscore.Hbond>  (588) 


>  <PLP.Chemscore.Internal.Correction>  (588) 


>  <PLP.Chemscore.Metal>  (588) 


>  <PLP.Fitness>  (588) 


>  <PLP.PLP>  (588) 


>  <PLP.ligand.clash>  (588) 


>  <PLP.ligand.torsion>  (588) 


>  <PLP.part.buried>  (588) 


>  <PLP.part.hbond>  (588) 


>  <PLP.part.metal>  (588) 


>  <PLP.part.nonpolar>  (588) 


>  <PLP.part.repulsive>  (588) 


>  <RMSD>  (588) 
0.439733510035

>  <Torsion>  (588) 
177.672185574

>  <TorsionO>  (588) 
4.31728583372

>  <TorsionR>  (588) 
173.35489974

>  <Version>  (588) 


>  <product>  (588) 
58|Compound_24|Compounds_3D_F|sdf|10|dock5|1

>  <rmsd>  (588) 
-1

$$$$
6|Compound_3|Compounds_3D_F|sdf|2|dock4|1
     RDKit          3D

  9  8  0  0  0  0  0  0  0  0999 V2000
   -5.4965  -15.2456    9.4089 O   0  0  0  0  0  0  0  0  0  0  0  0
   -6.0912  -15.9297   10.5132 C   0  0  0  0  0  0  0  0  0  0  0  0
   -5.1617  -15.8475   11.7251 C   0  0  0  0  0  0  0  0  0  0  0  0
   -4.8320  -14.4456   11.9940 N   0  0  0  0  0  0  0  0  0  0  0  0
   -5.8165  -13.5514   12.2112 C   0  0  0  0  0  0  0  0  0  0  0  0
   -6.9762  -13.9073   12.1844 O   0  0  0  0  0  0  0  0  0  0  0  0
   -5.4634  -12.0495   12.5000 B   0  0  0  0  0  0  0  0  0  0  0  0
   -5.8615  -16.4491   12.9459 C   0  0  0  0  0  0  0  0  0  0  0  0
   -3.8777  -16.6271   11.4380 C   0  0  0  0  0  0  0  0  0  0  0  0
  1  2  1  0
  2  3  1  0
  3  4  1  0
  3  8  1  0
  3  9  1  0
  4  5  1  0
  5  6  2  0
  5  7  1  0
M  END
>  <Gold.Gold.Protein.RotatedWaterAtoms>  (589) 


>  <Gold.Id.Protein>  (589) 


>  <Gold.PLP.Chemscore.CHOScore>  (589) 
0.0000

>  <Gold.PLP.Chemscore.Hbond>  (589) 
1.9913

>  <Gold.PLP.Chemscore.Internal.Correction>  (589) 
0.0000

>  <Gold.PLP.Chemscore.Metal>  (589) 
0.0000

>  <Gold.PLP.Fitness>  (589) 
32.5843

>  <Gold.PLP.PLP>  (589) 
-26.6967

>  <Gold.PLP.ligand.clash>  (589) 
0.0000

>  <Gold.PLP.ligand.torsion>  (589) 
0.0431

>  <Gold.PLP.part.buried>  (589) 
-4.3360

>  <Gold.PLP.part.hbond>  (589) 
-4.0000

>  <Gold.PLP.part.metal>  (589) 
0.0000

>  <Gold.PLP.part.nonpolar>  (589) 
-18.8466

>  <Gold.PLP.part.repulsive>  (589) 
0.2354

>  <Gold.Protein.RotatedAtoms>  (589) 


>  <Gold.Protein.RotatedTorsions>  (589) 


>  <Gold.Protein.RotatedWaterAtoms>  (589) 


>  <Gold.Version>  (589) 
5.3.0

>  <PLP.Chemscore.CHOScore>  (589) 


>  <PLP.Chemscore.Hbond>  (589) 


>  <PLP.Chemscore.Internal.Correction>  (589) 


>  <PLP.Chemscore.Metal>  (589) 


>  <PLP.Fitness>  (589) 


>  <PLP.PLP>  (589) 


>  <PLP.ligand.clash>  (589) 


>  <PLP.ligand.torsion>  (589) 


>  <PLP.part.buried>  (589) 


>  <PLP.part.hbond>  (589) 


>  <PLP.part.metal>  (589) 


>  <PLP.part.nonpolar>  (589) 


>  <PLP.part.repulsive>  (589) 


>  <Version>  (589) 


$$$$
94|664022_40|Aromatic_carboxylic_acids_F|sdf|24|dock1|1
     RDKit          3D

 12 12  0  0  0  0  0  0  0  0999 V2000
   -8.2596  -17.1212   11.4595 C   0  0  0  0  0  0  0  0  0  0  0  0
   -7.6366  -15.8367   11.6688 N   0  0  0  0  0  0  0  0  0  0  0  0
   -8.3409  -14.6553   11.5719 C   0  0  0  0  0  0  0  0  0  0  0  0
   -9.5296  -14.5547   11.2978 O   0  0  0  0  0  0  0  0  0  0  0  0
   -7.5420  -13.4431   11.8503 C   0  0  0  0  0  0  0  0  0  0  0  0
   -8.1627  -12.1983   11.6738 C   0  0  0  0  0  0  0  0  0  0  0  0
   -7.4390  -11.0301   11.9055 C   0  0  0  0  0  0  0  0  0  0  0  0
   -6.1069  -11.0910   12.3103 C   0  0  0  0  0  0  0  0  0  0  0  0
   -5.4897  -12.3324   12.4853 C   0  0  0  0  0  0  0  0  0  0  0  0
   -6.2035  -13.5136   12.2549 C   0  0  0  0  0  0  0  0  0  0  0  0
   -5.3062  -15.1564   12.5638 Br  0  0  0  0  0  0  0  0  0  0  0  0
   -8.1960   -9.5005   11.6887 Cl  0  0  0  0  0  0  0  0  0  0  0  0
  1  2  1  0
  2  3  1  0
  3  4  2  0
  3  5  1  0
  5  6  2  0
  5 10  1  0
  6  7  1  0
  7  8  2  0
  7 12  1  0
  8  9  1  0
  9 10  2  0
 10 11  1  0
M  END
>  <Gold.Gold.Protein.RotatedWaterAtoms>  (590) 


>  <Gold.Id.Protein>  (590) 


>  <Gold.PLP.Chemscore.CHOScore>  (590) 
0.0000

>  <Gold.PLP.Chemscore.Hbond>  (590) 
0.4160

>  <Gold.PLP.Chemscore.Internal.Correction>  (590) 
0.0004

>  <Gold.PLP.Chemscore.Metal>  (590) 
0.0000

>  <Gold.PLP.Fitness>  (590) 
48.9046

>  <Gold.PLP.PLP>  (590) 
-47.6744

>  <Gold.PLP.ligand.clash>  (590) 
0.0000

>  <Gold.PLP.ligand.torsion>  (590) 
0.0091

>  <Gold.PLP.part.buried>  (590) 
-7.3578

>  <Gold.PLP.part.hbond>  (590) 
-0.5127

>  <Gold.PLP.part.metal>  (590) 
0.0000

>  <Gold.PLP.part.nonpolar>  (590) 
-40.3098

>  <Gold.PLP.part.repulsive>  (590) 
0.1684

>  <Gold.Protein.RotatedAtoms>  (590) 


>  <Gold.Protein.RotatedTorsions>  (590) 


>  <Gold.Protein.RotatedWaterAtoms>  (590) 


>  <Gold.Version>  (590) 
5.3.0

>  <PLP.Chemscore.CHOScore>  (590) 


>  <PLP.Chemscore.Hbond>  (590) 


>  <PLP.Chemscore.Internal.Correction>  (590) 


>  <PLP.Chemscore.Metal>  (590) 


>  <PLP.Fitness>  (590) 


>  <PLP.PLP>  (590) 


>  <PLP.ligand.clash>  (590) 


>  <PLP.ligand.torsion>  (590) 


>  <PLP.part.buried>  (590) 


>  <PLP.part.hbond>  (590) 


>  <PLP.part.metal>  (590) 


>  <PLP.part.nonpolar>  (590) 


>  <PLP.part.repulsive>  (590) 


>  <RMSD>  (590) 
0.30972197429

>  <Torsion>  (590) 
172.929186758

>  <TorsionO>  (590) 
24.4968065243

>  <TorsionR>  (590) 
162.574006718

>  <Version>  (590) 


>  <product>  (590) 
6|Compound_3|Compounds_3D_F|sdf|2|dock4|1

>  <rmsd>  (590) 
-1

$$$$
110|565385_49|Aromatic_carboxylic_acids_F|sdf|29|dock1|1
     RDKit          3D

 13 13  0  0  0  0  0  0  0  0999 V2000
  -10.1118  -17.9021   11.6320 C   0  0  0  0  0  0  0  0  0  0  0  0
   -9.7537  -16.5043   11.6546 N   0  0  0  0  0  0  0  0  0  0  0  0
   -8.4330  -16.1187   11.7930 C   0  0  0  0  0  0  0  0  0  0  0  0
   -7.5159  -16.9298   11.9008 O   0  0  0  0  0  0  0  0  0  0  0  0
   -8.1234  -14.6552   11.8105 C   0  0  0  0  0  0  0  0  0  0  0  0
   -9.0636  -13.6551   11.5375 C   0  0  0  0  0  0  0  0  0  0  0  0
   -8.6966  -12.3009   11.5726 C   0  0  0  0  0  0  0  0  0  0  0  0
   -7.3879  -11.9195   11.8809 C   0  0  0  0  0  0  0  0  0  0  0  0
   -6.4486  -12.9235   12.1551 C   0  0  0  0  0  0  0  0  0  0  0  0
   -6.8098  -14.2750   12.1207 C   0  0  0  0  0  0  0  0  0  0  0  0
   -4.6444  -12.5025   12.5849 Br  0  0  0  0  0  0  0  0  0  0  0  0
   -6.9476  -10.6242   11.9372 O   0  0  0  0  0  0  0  0  0  0  0  0
   -7.9020   -9.5910   11.7256 C   0  0  0  0  0  0  0  0  0  0  0  0
  1  2  1  0
  2  3  1  0
  3  4  2  0
  3  5  1  0
  5  6  2  0
  5 10  1  0
  6  7  1  0
  7  8  2  0
  8  9  1  0
  8 12  1  0
  9 10  2  0
  9 11  1  0
 12 13  1  0
M  END
>  <Gold.Gold.Protein.RotatedWaterAtoms>  (591) 


>  <Gold.Id.Protein>  (591) 


>  <Gold.PLP.Chemscore.CHOScore>  (591) 
0.0000

>  <Gold.PLP.Chemscore.Hbond>  (591) 
1.0000

>  <Gold.PLP.Chemscore.Internal.Correction>  (591) 
0.0000

>  <Gold.PLP.Chemscore.Metal>  (591) 
0.0000

>  <Gold.PLP.Fitness>  (591) 
43.9775

>  <Gold.PLP.PLP>  (591) 
-41.0517

>  <Gold.PLP.ligand.clash>  (591) 
0.0000

>  <Gold.PLP.ligand.torsion>  (591) 
0.0371

>  <Gold.PLP.part.buried>  (591) 
-3.7367

>  <Gold.PLP.part.hbond>  (591) 
-1.0000

>  <Gold.PLP.part.metal>  (591) 
0.0000

>  <Gold.PLP.part.nonpolar>  (591) 
-36.7483

>  <Gold.PLP.part.repulsive>  (591) 
0.4054

>  <Gold.Protein.RotatedAtoms>  (591) 


>  <Gold.Protein.RotatedTorsions>  (591) 


>  <Gold.Protein.RotatedWaterAtoms>  (591) 


>  <Gold.Version>  (591) 
5.3.0

>  <PLP.Chemscore.CHOScore>  (591) 


>  <PLP.Chemscore.Hbond>  (591) 


>  <PLP.Chemscore.Internal.Correction>  (591) 


>  <PLP.Chemscore.Metal>  (591) 


>  <PLP.Fitness>  (591) 


>  <PLP.PLP>  (591) 


>  <PLP.ligand.clash>  (591) 


>  <PLP.ligand.torsion>  (591) 


>  <PLP.part.buried>  (591) 


>  <PLP.part.hbond>  (591) 


>  <PLP.part.metal>  (591) 


>  <PLP.part.nonpolar>  (591) 


>  <PLP.part.repulsive>  (591) 


>  <RMSD>  (591) 
0.319376411377

>  <Torsion>  (591) 
169.460450784

>  <TorsionO>  (591) 
9.7963905484

>  <TorsionR>  (591) 
179.256841332

>  <Version>  (591) 


>  <product>  (591) 
6|Compound_3|Compounds_3D_F|sdf|2|dock4|1

>  <rmsd>  (591) 
-1

$$$$
128|137677_56|Aromatic_carboxylic_acids_F|sdf|33|dock1|1
     RDKit          3D

 11 11  0  0  0  0  0  0  0  0999 V2000
   -8.6116  -16.1544   11.8887 C   0  0  0  0  0  0  0  0  0  0  0  0
   -7.9978  -14.8484   11.9215 N   0  0  0  0  0  0  0  0  0  0  0  0
   -8.7778  -13.7008   11.8756 C   0  0  0  0  0  0  0  0  0  0  0  0
  -10.0002  -13.7896   11.8139 O   0  0  0  0  0  0  0  0  0  0  0  0
   -8.0808  -12.3609   11.9017 C   0  0  0  0  0  0  0  0  0  0  0  0
   -8.7916  -11.1851   11.5813 C   0  0  0  0  0  0  0  0  0  0  0  0
   -8.1781   -9.9267   11.5989 C   0  0  0  0  0  0  0  0  0  0  0  0
   -6.8391   -9.8089   11.9369 C   0  0  0  0  0  0  0  0  0  0  0  0
   -6.1124  -10.9502   12.2575 C   0  0  0  0  0  0  0  0  0  0  0  0
   -6.7171  -12.2196   12.2428 C   0  0  0  0  0  0  0  0  0  0  0  0
   -5.5419  -13.6455   12.7121 Br  0  0  0  0  0  0  0  0  0  0  0  0
  1  2  1  0
  2  3  1  0
  3  4  2  0
  3  5  1  0
  5  6  2  0
  5 10  1  0
  6  7  1  0
  7  8  2  0
  8  9  1  0
  9 10  2  0
 10 11  1  0
M  END
>  <Gold.Gold.Protein.RotatedWaterAtoms>  (592) 


>  <Gold.Id.Protein>  (592) 


>  <Gold.PLP.Chemscore.CHOScore>  (592) 
0.0000

>  <Gold.PLP.Chemscore.Hbond>  (592) 
1.0000

>  <Gold.PLP.Chemscore.Internal.Correction>  (592) 
0.0000

>  <Gold.PLP.Chemscore.Metal>  (592) 
0.0000

>  <Gold.PLP.Fitness>  (592) 
45.2899

>  <Gold.PLP.PLP>  (592) 
-42.4444

>  <Gold.PLP.ligand.clash>  (592) 
0.0000

>  <Gold.PLP.ligand.torsion>  (592) 
0.0772

>  <Gold.PLP.part.buried>  (592) 
-6.4690

>  <Gold.PLP.part.hbond>  (592) 
-0.6863

>  <Gold.PLP.part.metal>  (592) 
0.0000

>  <Gold.PLP.part.nonpolar>  (592) 
-34.8280

>  <Gold.PLP.part.repulsive>  (592) 
0.1963

>  <Gold.Protein.RotatedAtoms>  (592) 


>  <Gold.Protein.RotatedTorsions>  (592) 


>  <Gold.Protein.RotatedWaterAtoms>  (592) 


>  <Gold.Version>  (592) 
5.3.0

>  <PLP.Chemscore.CHOScore>  (592) 


>  <PLP.Chemscore.Hbond>  (592) 


>  <PLP.Chemscore.Internal.Correction>  (592) 


>  <PLP.Chemscore.Metal>  (592) 


>  <PLP.Fitness>  (592) 


>  <PLP.PLP>  (592) 


>  <PLP.ligand.clash>  (592) 


>  <PLP.ligand.torsion>  (592) 


>  <PLP.part.buried>  (592) 


>  <PLP.part.hbond>  (592) 


>  <PLP.part.metal>  (592) 


>  <PLP.part.nonpolar>  (592) 


>  <PLP.part.repulsive>  (592) 


>  <RMSD>  (592) 
0.428070490903

>  <Torsion>  (592) 
152.444048788

>  <TorsionO>  (592) 
39.0580871276

>  <TorsionR>  (592) 
168.497864085

>  <Version>  (592) 


>  <product>  (592) 
6|Compound_3|Compounds_3D_F|sdf|2|dock4|1

>  <rmsd>  (592) 
-1

$$$$
974|750794_1404|Aromatic_primary_amines_F|sdf|194|dock3|1
     RDKit          3D

 14 14  0  0  0  0  0  0  0  0999 V2000
  -13.6355  -18.1936    9.4145 C   0  0  0  0  0  0  0  0  0  0  0  0
  -13.2544  -19.4497   10.1732 C   0  0  0  0  0  0  0  0  0  0  0  0
  -11.8731  -19.3506   10.5383 O   0  0  0  0  0  0  0  0  0  0  0  0
  -11.6148  -18.5085   11.5823 C   0  0  0  0  0  0  0  0  0  0  0  0
  -12.3947  -18.2810   12.5004 O   0  0  0  0  0  0  0  0  0  0  0  0
  -10.3031  -17.8985   11.4902 C   0  0  0  0  0  0  0  0  0  0  0  0
   -9.1673  -18.4974   10.9931 C   0  0  0  0  0  0  0  0  0  0  0  0
   -8.1448  -17.6055   11.0758 O   0  0  0  0  0  0  0  0  0  0  0  0
   -8.7110  -16.4917   11.6237 C   0  0  0  0  0  0  0  0  0  0  0  0
   -9.9933  -16.6110   11.8915 N   0  0  0  0  0  0  0  0  0  0  0  0
   -7.9611  -15.3718   11.8549 N   0  0  0  0  0  0  0  0  0  0  0  0
   -8.5046  -14.1249   12.0676 C   0  0  0  0  0  0  0  0  0  0  0  0
   -9.6950  -13.8313   12.1035 O   0  0  0  0  0  0  0  0  0  0  0  0
   -7.4448  -13.0785   12.3021 C   0  0  0  0  0  0  0  0  0  0  0  0
  1  2  1  0
  2  3  1  0
  3  4  1  0
  4  5  2  0
  4  6  1  0
  6  7  2  0
  6 10  1  0
  7  8  1  0
  8  9  1  0
  9 10  2  0
  9 11  1  0
 11 12  1  0
 12 13  2  0
 12 14  1  0
M  END
>  <Gold.Gold.Protein.RotatedWaterAtoms>  (593) 


>  <Gold.Id.Protein>  (593) 


>  <Gold.PLP.Chemscore.CHOScore>  (593) 
0.0000

>  <Gold.PLP.Chemscore.Hbond>  (593) 
2.0000

>  <Gold.PLP.Chemscore.Internal.Correction>  (593) 
0.0053

>  <Gold.PLP.Chemscore.Metal>  (593) 
0.0000

>  <Gold.PLP.Fitness>  (593) 
36.8047

>  <Gold.PLP.PLP>  (593) 
-32.7996

>  <Gold.PLP.ligand.clash>  (593) 
0.0000

>  <Gold.PLP.ligand.torsion>  (593) 
1.0001

>  <Gold.PLP.part.buried>  (593) 
-6.5206

>  <Gold.PLP.part.hbond>  (593) 
-2.9156

>  <Gold.PLP.part.metal>  (593) 
0.0000

>  <Gold.PLP.part.nonpolar>  (593) 
-23.4080

>  <Gold.PLP.part.repulsive>  (593) 
0.3100

>  <Gold.Protein.RotatedAtoms>  (593) 


>  <Gold.Protein.RotatedTorsions>  (593) 


>  <Gold.Protein.RotatedWaterAtoms>  (593) 


>  <Gold.Version>  (593) 
5.3.0

>  <PLP.Chemscore.CHOScore>  (593) 


>  <PLP.Chemscore.Hbond>  (593) 


>  <PLP.Chemscore.Internal.Correction>  (593) 


>  <PLP.Chemscore.Metal>  (593) 


>  <PLP.Fitness>  (593) 


>  <PLP.PLP>  (593) 


>  <PLP.ligand.clash>  (593) 


>  <PLP.ligand.torsion>  (593) 


>  <PLP.part.buried>  (593) 


>  <PLP.part.hbond>  (593) 


>  <PLP.part.metal>  (593) 


>  <PLP.part.nonpolar>  (593) 


>  <PLP.part.repulsive>  (593) 


>  <RMSD>  (593) 
0.499949349045

>  <Torsion>  (593) 
159.973716791

>  <TorsionO>  (593) 
19.1052109979

>  <TorsionR>  (593) 
179.078927789

>  <Version>  (593) 


>  <product>  (593) 
6|Compound_3|Compounds_3D_F|sdf|2|dock4|1

>  <rmsd>  (593) 
-1

$$$$
1884|M3006_1781|Aromatic_primary_amines_F|sdf|361|dock3|1
     RDKit          3D

 31 34  0  0  0  0  0  0  0  0999 V2000
  -14.4210  -19.8971    8.7934 C   0  0  0  0  0  0  0  0  0  0  0  0
  -13.9762  -19.4927   10.1894 C   0  0  0  0  0  0  0  0  0  0  0  0
  -14.1356  -20.6409   11.1817 C   0  0  0  0  0  0  0  0  0  0  0  0
  -13.5197  -20.3070   12.5189 C   0  0  0  0  0  0  0  0  0  0  0  0
  -12.9307  -19.2724   12.7954 O   0  0  0  0  0  0  0  0  0  0  0  0
  -13.7110  -21.3451   13.3845 O   0  0  0  0  0  0  0  0  0  0  0  0
  -12.9425  -21.2698   14.5900 C   0  0  0  0  0  0  0  0  0  0  0  0
  -12.8849  -22.6189   15.2889 C   0  0  0  0  0  0  0  0  0  0  0  0
  -11.6552  -22.4172   16.1494 C   0  0  0  0  0  0  0  0  0  0  0  0
  -11.2420  -23.7410   16.7624 C   0  0  0  0  0  0  0  0  0  0  0  0
  -12.3024  -24.2223   17.5862 O   0  0  0  0  0  0  0  0  0  0  0  0
  -13.7888  -24.3384   16.9603 P   0  0  0  0  0  0  0  0  0  0  0  0
  -14.8775  -24.6795   17.9243 O   0  0  0  0  0  0  0  0  0  0  0  0
  -13.9839  -22.9641   16.1174 O   0  0  0  0  0  0  0  0  0  0  0  0
  -13.5991  -25.4435   15.8075 O   0  0  0  0  0  0  0  0  0  0  0  0
  -10.6922  -21.8161   15.2889 O   0  0  0  0  0  0  0  0  0  0  0  0
  -11.4338  -20.9664   14.3653 C   0  0  0  0  0  0  0  0  0  0  0  0
  -10.9052  -21.2017   13.0342 N   0  0  0  0  0  0  0  0  0  0  0  0
  -10.7814  -22.4114   12.4013 C   0  0  0  0  0  0  0  0  0  0  0  0
  -10.2640  -22.2918   11.1953 N   0  0  0  0  0  0  0  0  0  0  0  0
  -10.0274  -20.9476   11.0424 C   0  0  0  0  0  0  0  0  0  0  0  0
  -10.4203  -20.2487   12.1733 C   0  0  0  0  0  0  0  0  0  0  0  0
  -10.3338  -18.9216   12.3641 N   0  0  0  0  0  0  0  0  0  0  0  0
   -9.8057  -18.2730   11.3024 C   0  0  0  0  0  0  0  0  0  0  0  0
   -9.3808  -18.8370   10.1545 N   0  0  0  0  0  0  0  0  0  0  0  0
   -9.4895  -20.1691   10.0244 C   0  0  0  0  0  0  0  0  0  0  0  0
   -9.0330  -20.6622    8.8349 O   0  0  0  0  0  0  0  0  0  0  0  0
   -9.7222  -16.8901   11.4793 N   0  0  0  0  0  0  0  0  0  0  0  0
   -8.5796  -16.1798   11.7761 C   0  0  0  0  0  0  0  0  0  0  0  0
   -7.4445  -16.6221   11.9131 O   0  0  0  0  0  0  0  0  0  0  0  0
   -8.8524  -14.7024   11.8973 C   0  0  0  0  0  0  0  0  0  0  0  0
  1  2  1  0
  2  3  1  0
  3  4  1  0
  4  5  2  0
  4  6  1  0
  6  7  1  0
  7  8  1  0
  7 17  1  0
  8  9  1  0
  8 14  1  0
  9 10  1  0
  9 16  1  0
 10 11  1  0
 11 12  1  0
 12 13  2  0
 12 14  1  0
 12 15  1  0
 16 17  1  0
 17 18  1  0
 18 19  1  0
 18 22  1  0
 19 20  2  0
 20 21  1  0
 21 22  2  0
 21 26  1  0
 22 23  1  0
 23 24  2  0
 24 25  1  0
 24 28  1  0
 25 26  2  0
 26 27  1  0
 28 29  1  0
 29 30  2  0
 29 31  1  0
M  END
>  <Gold.Gold.Protein.RotatedWaterAtoms>  (594) 


>  <Gold.Id.Protein>  (594) 


>  <Gold.PLP.Chemscore.CHOScore>  (594) 
0.0000

>  <Gold.PLP.Chemscore.Hbond>  (594) 
1.2080

>  <Gold.PLP.Chemscore.Internal.Correction>  (594) 
0.1232

>  <Gold.PLP.Chemscore.Metal>  (594) 
0.0000

>  <Gold.PLP.Fitness>  (594) 
47.7145

>  <Gold.PLP.PLP>  (594) 
-46.0218

>  <Gold.PLP.ligand.clash>  (594) 
0.0000

>  <Gold.PLP.ligand.torsion>  (594) 
1.0272

>  <Gold.PLP.part.buried>  (594) 
-2.2958

>  <Gold.PLP.part.hbond>  (594) 
-4.0214

>  <Gold.PLP.part.metal>  (594) 
0.0000

>  <Gold.PLP.part.nonpolar>  (594) 
-41.4699

>  <Gold.PLP.part.repulsive>  (594) 
0.9524

>  <Gold.Protein.RotatedAtoms>  (594) 


>  <Gold.Protein.RotatedTorsions>  (594) 


>  <Gold.Protein.RotatedWaterAtoms>  (594) 


>  <Gold.Version>  (594) 
5.3.0

>  <PLP.Chemscore.CHOScore>  (594) 


>  <PLP.Chemscore.Hbond>  (594) 


>  <PLP.Chemscore.Internal.Correction>  (594) 


>  <PLP.Chemscore.Metal>  (594) 


>  <PLP.Fitness>  (594) 


>  <PLP.PLP>  (594) 


>  <PLP.ligand.clash>  (594) 


>  <PLP.ligand.torsion>  (594) 


>  <PLP.part.buried>  (594) 


>  <PLP.part.hbond>  (594) 


>  <PLP.part.metal>  (594) 


>  <PLP.part.nonpolar>  (594) 


>  <PLP.part.repulsive>  (594) 


>  <RMSD>  (594) 
0.291955871297

>  <Torsion>  (594) 
171.923704933

>  <TorsionO>  (594) 
6.03609353985

>  <TorsionR>  (594) 
177.959798473

>  <Version>  (594) 


>  <product>  (594) 
6|Compound_3|Compounds_3D_F|sdf|2|dock4|1

>  <rmsd>  (594) 
-1

$$$$
193|32168_281|Aromatic_primary_amines_F|sdf|39|dock6|1
     RDKit          3D

 23 25  0  0  0  0  0  0  0  0999 V2000
   -7.8439  -12.1461   11.8919 C   0  0  0  0  0  0  0  0  0  0  0  0
   -8.5691  -13.4472   11.6781 C   0  0  0  0  0  0  0  0  0  0  0  0
   -9.7886  -13.4981   11.5208 O   0  0  0  0  0  0  0  0  0  0  0  0
   -7.7264  -14.5390   11.7020 N   0  0  0  0  0  0  0  0  0  0  0  0
   -8.1889  -15.8197   11.5323 C   0  0  0  0  0  0  0  0  0  0  0  0
   -9.4747  -16.2039   11.8163 N   0  0  0  0  0  0  0  0  0  0  0  0
   -9.5964  -17.5375   11.5379 C   0  0  0  0  0  0  0  0  0  0  0  0
  -10.6643  -18.4283   11.6415 C   0  0  0  0  0  0  0  0  0  0  0  0
  -10.4051  -19.7586   11.2778 C   0  0  0  0  0  0  0  0  0  0  0  0
   -9.1530  -20.1507   10.7795 C   0  0  0  0  0  0  0  0  0  0  0  0
   -8.1017  -19.2294   10.6839 C   0  0  0  0  0  0  0  0  0  0  0  0
   -8.3349  -17.9032   11.0783 C   0  0  0  0  0  0  0  0  0  0  0  0
   -7.4773  -16.8281   11.0838 N   0  0  0  0  0  0  0  0  0  0  0  0
   -8.8530  -21.7658   10.2429 Cl  0  0  0  0  0  0  0  0  0  0  0  0
  -11.4669  -20.6323   11.3734 O   0  0  0  0  0  0  0  0  0  0  0  0
  -12.5262  -20.4408   10.5053 C   0  0  0  0  0  0  0  0  0  0  0  0
  -13.3188  -19.2846   10.5304 C   0  0  0  0  0  0  0  0  0  0  0  0
  -14.3665  -19.1344    9.6224 C   0  0  0  0  0  0  0  0  0  0  0  0
  -14.6219  -20.1279    8.6796 C   0  0  0  0  0  0  0  0  0  0  0  0
  -13.8238  -21.2756    8.6345 C   0  0  0  0  0  0  0  0  0  0  0  0
  -12.7674  -21.4342    9.5416 C   0  0  0  0  0  0  0  0  0  0  0  0
  -11.7588  -22.8458    9.4996 Cl  0  0  0  0  0  0  0  0  0  0  0  0
  -14.1988  -22.4584    7.4296 Cl  0  0  0  0  0  0  0  0  0  0  0  0
  1  2  1  0
  2  3  2  0
  2  4  1  0
  4  5  1  0
  5  6  1  0
  5 13  2  0
  6  7  1  0
  7  8  2  0
  7 12  1  0
  8  9  1  0
  9 10  2  0
  9 15  1  0
 10 11  1  0
 10 14  1  0
 11 12  2  0
 12 13  1  0
 15 16  1  0
 16 17  2  0
 16 21  1  0
 17 18  1  0
 18 19  2  0
 19 20  1  0
 20 21  2  0
 20 23  1  0
 21 22  1  0
M  END
>  <Gold.Gold.Protein.RotatedWaterAtoms>  (595) 


>  <Gold.Id.Protein>  (595) 


>  <Gold.PLP.Chemscore.CHOScore>  (595) 
0.0000

>  <Gold.PLP.Chemscore.Hbond>  (595) 
1.0000

>  <Gold.PLP.Chemscore.Internal.Correction>  (595) 
0.0086

>  <Gold.PLP.Chemscore.Metal>  (595) 
0.0000

>  <Gold.PLP.Fitness>  (595) 
50.7139

>  <Gold.PLP.PLP>  (595) 
-48.1706

>  <Gold.PLP.ligand.clash>  (595) 
0.0000

>  <Gold.PLP.ligand.torsion>  (595) 
0.2327

>  <Gold.PLP.part.buried>  (595) 
-6.5205

>  <Gold.PLP.part.hbond>  (595) 
-2.0000

>  <Gold.PLP.part.metal>  (595) 
0.0000

>  <Gold.PLP.part.nonpolar>  (595) 
-39.3857

>  <Gold.PLP.part.repulsive>  (595) 
0.3298

>  <Gold.Protein.RotatedAtoms>  (595) 


>  <Gold.Protein.RotatedTorsions>  (595) 


>  <Gold.Protein.RotatedWaterAtoms>  (595) 


>  <Gold.Version>  (595) 
5.3.0

>  <PLP.Chemscore.CHOScore>  (595) 


>  <PLP.Chemscore.Hbond>  (595) 


>  <PLP.Chemscore.Internal.Correction>  (595) 


>  <PLP.Chemscore.Metal>  (595) 


>  <PLP.Fitness>  (595) 


>  <PLP.PLP>  (595) 


>  <PLP.ligand.clash>  (595) 


>  <PLP.ligand.torsion>  (595) 


>  <PLP.part.buried>  (595) 


>  <PLP.part.hbond>  (595) 


>  <PLP.part.metal>  (595) 


>  <PLP.part.nonpolar>  (595) 


>  <PLP.part.repulsive>  (595) 


>  <RMSD>  (595) 
0.439733510035

>  <Torsion>  (595) 
177.672185574

>  <TorsionO>  (595) 
4.31728583372

>  <TorsionR>  (595) 
173.35489974

>  <Version>  (595) 


>  <product>  (595) 
6|Compound_3|Compounds_3D_F|sdf|2|dock4|1

>  <rmsd>  (595) 
-1

$$$$
69|Compound_26|Compounds_3D_F|sdf|12|dock1|1
     RDKit          3D

  9  8  0  0  0  0  0  0  0  0999 V2000
   -9.6132  -14.0038   12.4456 O   0  0  0  0  0  0  0  0  0  0  0  0
   -8.4727  -14.4711   11.9159 C   0  0  0  0  0  0  0  0  0  0  0  0
   -8.3582  -15.6489   11.6686 O   0  0  0  0  0  0  0  0  0  0  0  0
   -7.3327  -13.5278   11.6295 C   0  0  0  0  0  0  0  0  0  0  0  0
   -6.1556  -13.8544   12.5507 C   0  0  0  0  0  0  0  0  0  0  0  0
   -5.1851  -14.6816   11.8292 N   0  0  0  0  0  0  0  0  0  0  0  0
   -5.0954  -15.9998   12.0927 C   0  0  0  0  0  0  0  0  0  0  0  0
   -5.8178  -16.5023   12.9268 O   0  0  0  0  0  0  0  0  0  0  0  0
   -4.0564  -16.8865   11.3183 B   0  0  0  0  0  0  0  0  0  0  0  0
  1  2  1  0
  2  3  2  0
  2  4  1  0
  4  5  1  0
  5  6  1  0
  6  7  1  0
  7  8  2  0
  7  9  1  0
M  END
>  <Gold.Gold.Protein.RotatedWaterAtoms>  (596) 


>  <Gold.Id.Protein>  (596) 


>  <Gold.PLP.Chemscore.CHOScore>  (596) 
0.0000

>  <Gold.PLP.Chemscore.Hbond>  (596) 
2.0000

>  <Gold.PLP.Chemscore.Internal.Correction>  (596) 
0.0028

>  <Gold.PLP.Chemscore.Metal>  (596) 
0.0000

>  <Gold.PLP.Fitness>  (596) 
30.3803

>  <Gold.PLP.PLP>  (596) 
-25.1849

>  <Gold.PLP.ligand.clash>  (596) 
0.0000

>  <Gold.PLP.ligand.torsion>  (596) 
0.4037

>  <Gold.PLP.part.buried>  (596) 
-6.5325

>  <Gold.PLP.part.hbond>  (596) 
-2.4493

>  <Gold.PLP.part.metal>  (596) 
0.0000

>  <Gold.PLP.part.nonpolar>  (596) 
-16.1970

>  <Gold.PLP.part.repulsive>  (596) 
0.2134

>  <Gold.Protein.RotatedAtoms>  (596) 


>  <Gold.Protein.RotatedTorsions>  (596) 


>  <Gold.Protein.RotatedWaterAtoms>  (596) 


>  <Gold.Version>  (596) 
5.3.0

>  <PLP.Chemscore.CHOScore>  (596) 


>  <PLP.Chemscore.Hbond>  (596) 


>  <PLP.Chemscore.Internal.Correction>  (596) 


>  <PLP.Chemscore.Metal>  (596) 


>  <PLP.Fitness>  (596) 


>  <PLP.PLP>  (596) 


>  <PLP.ligand.clash>  (596) 


>  <PLP.ligand.torsion>  (596) 


>  <PLP.part.buried>  (596) 


>  <PLP.part.hbond>  (596) 


>  <PLP.part.metal>  (596) 


>  <PLP.part.nonpolar>  (596) 


>  <PLP.part.repulsive>  (596) 


>  <Version>  (596) 


$$$$
94|664022_40|Aromatic_carboxylic_acids_F|sdf|24|dock1|1
     RDKit          3D

 12 12  0  0  0  0  0  0  0  0999 V2000
   -8.2596  -17.1212   11.4595 C   0  0  0  0  0  0  0  0  0  0  0  0
   -7.6366  -15.8367   11.6688 N   0  0  0  0  0  0  0  0  0  0  0  0
   -8.3409  -14.6553   11.5719 C   0  0  0  0  0  0  0  0  0  0  0  0
   -9.5296  -14.5547   11.2978 O   0  0  0  0  0  0  0  0  0  0  0  0
   -7.5420  -13.4431   11.8503 C   0  0  0  0  0  0  0  0  0  0  0  0
   -8.1627  -12.1983   11.6738 C   0  0  0  0  0  0  0  0  0  0  0  0
   -7.4390  -11.0301   11.9055 C   0  0  0  0  0  0  0  0  0  0  0  0
   -6.1069  -11.0910   12.3103 C   0  0  0  0  0  0  0  0  0  0  0  0
   -5.4897  -12.3324   12.4853 C   0  0  0  0  0  0  0  0  0  0  0  0
   -6.2035  -13.5136   12.2549 C   0  0  0  0  0  0  0  0  0  0  0  0
   -5.3062  -15.1564   12.5638 Br  0  0  0  0  0  0  0  0  0  0  0  0
   -8.1960   -9.5005   11.6887 Cl  0  0  0  0  0  0  0  0  0  0  0  0
  1  2  1  0
  2  3  1  0
  3  4  2  0
  3  5  1  0
  5  6  2  0
  5 10  1  0
  6  7  1  0
  7  8  2  0
  7 12  1  0
  8  9  1  0
  9 10  2  0
 10 11  1  0
M  END
>  <Gold.Gold.Protein.RotatedWaterAtoms>  (597) 


>  <Gold.Id.Protein>  (597) 


>  <Gold.PLP.Chemscore.CHOScore>  (597) 
0.0000

>  <Gold.PLP.Chemscore.Hbond>  (597) 
0.4160

>  <Gold.PLP.Chemscore.Internal.Correction>  (597) 
0.0004

>  <Gold.PLP.Chemscore.Metal>  (597) 
0.0000

>  <Gold.PLP.Fitness>  (597) 
48.9046

>  <Gold.PLP.PLP>  (597) 
-47.6744

>  <Gold.PLP.ligand.clash>  (597) 
0.0000

>  <Gold.PLP.ligand.torsion>  (597) 
0.0091

>  <Gold.PLP.part.buried>  (597) 
-7.3578

>  <Gold.PLP.part.hbond>  (597) 
-0.5127

>  <Gold.PLP.part.metal>  (597) 
0.0000

>  <Gold.PLP.part.nonpolar>  (597) 
-40.3098

>  <Gold.PLP.part.repulsive>  (597) 
0.1684

>  <Gold.Protein.RotatedAtoms>  (597) 


>  <Gold.Protein.RotatedTorsions>  (597) 


>  <Gold.Protein.RotatedWaterAtoms>  (597) 


>  <Gold.Version>  (597) 
5.3.0

>  <PLP.Chemscore.CHOScore>  (597) 


>  <PLP.Chemscore.Hbond>  (597) 


>  <PLP.Chemscore.Internal.Correction>  (597) 


>  <PLP.Chemscore.Metal>  (597) 


>  <PLP.Fitness>  (597) 


>  <PLP.PLP>  (597) 


>  <PLP.ligand.clash>  (597) 


>  <PLP.ligand.torsion>  (597) 


>  <PLP.part.buried>  (597) 


>  <PLP.part.hbond>  (597) 


>  <PLP.part.metal>  (597) 


>  <PLP.part.nonpolar>  (597) 


>  <PLP.part.repulsive>  (597) 


>  <RMSD>  (597) 
0.30972197429

>  <Torsion>  (597) 
172.929186758

>  <TorsionO>  (597) 
24.4968065243

>  <TorsionR>  (597) 
162.574006718

>  <Version>  (597) 


>  <product>  (597) 
69|Compound_26|Compounds_3D_F|sdf|12|dock1|1

>  <rmsd>  (597) 
-1

$$$$
110|565385_49|Aromatic_carboxylic_acids_F|sdf|29|dock1|1
     RDKit          3D

 13 13  0  0  0  0  0  0  0  0999 V2000
  -10.1118  -17.9021   11.6320 C   0  0  0  0  0  0  0  0  0  0  0  0
   -9.7537  -16.5043   11.6546 N   0  0  0  0  0  0  0  0  0  0  0  0
   -8.4330  -16.1187   11.7930 C   0  0  0  0  0  0  0  0  0  0  0  0
   -7.5159  -16.9298   11.9008 O   0  0  0  0  0  0  0  0  0  0  0  0
   -8.1234  -14.6552   11.8105 C   0  0  0  0  0  0  0  0  0  0  0  0
   -9.0636  -13.6551   11.5375 C   0  0  0  0  0  0  0  0  0  0  0  0
   -8.6966  -12.3009   11.5726 C   0  0  0  0  0  0  0  0  0  0  0  0
   -7.3879  -11.9195   11.8809 C   0  0  0  0  0  0  0  0  0  0  0  0
   -6.4486  -12.9235   12.1551 C   0  0  0  0  0  0  0  0  0  0  0  0
   -6.8098  -14.2750   12.1207 C   0  0  0  0  0  0  0  0  0  0  0  0
   -4.6444  -12.5025   12.5849 Br  0  0  0  0  0  0  0  0  0  0  0  0
   -6.9476  -10.6242   11.9372 O   0  0  0  0  0  0  0  0  0  0  0  0
   -7.9020   -9.5910   11.7256 C   0  0  0  0  0  0  0  0  0  0  0  0
  1  2  1  0
  2  3  1  0
  3  4  2  0
  3  5  1  0
  5  6  2  0
  5 10  1  0
  6  7  1  0
  7  8  2  0
  8  9  1  0
  8 12  1  0
  9 10  2  0
  9 11  1  0
 12 13  1  0
M  END
>  <Gold.Gold.Protein.RotatedWaterAtoms>  (598) 


>  <Gold.Id.Protein>  (598) 


>  <Gold.PLP.Chemscore.CHOScore>  (598) 
0.0000

>  <Gold.PLP.Chemscore.Hbond>  (598) 
1.0000

>  <Gold.PLP.Chemscore.Internal.Correction>  (598) 
0.0000

>  <Gold.PLP.Chemscore.Metal>  (598) 
0.0000

>  <Gold.PLP.Fitness>  (598) 
43.9775

>  <Gold.PLP.PLP>  (598) 
-41.0517

>  <Gold.PLP.ligand.clash>  (598) 
0.0000

>  <Gold.PLP.ligand.torsion>  (598) 
0.0371

>  <Gold.PLP.part.buried>  (598) 
-3.7367

>  <Gold.PLP.part.hbond>  (598) 
-1.0000

>  <Gold.PLP.part.metal>  (598) 
0.0000

>  <Gold.PLP.part.nonpolar>  (598) 
-36.7483

>  <Gold.PLP.part.repulsive>  (598) 
0.4054

>  <Gold.Protein.RotatedAtoms>  (598) 


>  <Gold.Protein.RotatedTorsions>  (598) 


>  <Gold.Protein.RotatedWaterAtoms>  (598) 


>  <Gold.Version>  (598) 
5.3.0

>  <PLP.Chemscore.CHOScore>  (598) 


>  <PLP.Chemscore.Hbond>  (598) 


>  <PLP.Chemscore.Internal.Correction>  (598) 


>  <PLP.Chemscore.Metal>  (598) 


>  <PLP.Fitness>  (598) 


>  <PLP.PLP>  (598) 


>  <PLP.ligand.clash>  (598) 


>  <PLP.ligand.torsion>  (598) 


>  <PLP.part.buried>  (598) 


>  <PLP.part.hbond>  (598) 


>  <PLP.part.metal>  (598) 


>  <PLP.part.nonpolar>  (598) 


>  <PLP.part.repulsive>  (598) 


>  <RMSD>  (598) 
0.319376411377

>  <Torsion>  (598) 
169.460450784

>  <TorsionO>  (598) 
9.7963905484

>  <TorsionR>  (598) 
179.256841332

>  <Version>  (598) 


>  <product>  (598) 
69|Compound_26|Compounds_3D_F|sdf|12|dock1|1

>  <rmsd>  (598) 
-1

$$$$
128|137677_56|Aromatic_carboxylic_acids_F|sdf|33|dock1|1
     RDKit          3D

 11 11  0  0  0  0  0  0  0  0999 V2000
   -8.6116  -16.1544   11.8887 C   0  0  0  0  0  0  0  0  0  0  0  0
   -7.9978  -14.8484   11.9215 N   0  0  0  0  0  0  0  0  0  0  0  0
   -8.7778  -13.7008   11.8756 C   0  0  0  0  0  0  0  0  0  0  0  0
  -10.0002  -13.7896   11.8139 O   0  0  0  0  0  0  0  0  0  0  0  0
   -8.0808  -12.3609   11.9017 C   0  0  0  0  0  0  0  0  0  0  0  0
   -8.7916  -11.1851   11.5813 C   0  0  0  0  0  0  0  0  0  0  0  0
   -8.1781   -9.9267   11.5989 C   0  0  0  0  0  0  0  0  0  0  0  0
   -6.8391   -9.8089   11.9369 C   0  0  0  0  0  0  0  0  0  0  0  0
   -6.1124  -10.9502   12.2575 C   0  0  0  0  0  0  0  0  0  0  0  0
   -6.7171  -12.2196   12.2428 C   0  0  0  0  0  0  0  0  0  0  0  0
   -5.5419  -13.6455   12.7121 Br  0  0  0  0  0  0  0  0  0  0  0  0
  1  2  1  0
  2  3  1  0
  3  4  2  0
  3  5  1  0
  5  6  2  0
  5 10  1  0
  6  7  1  0
  7  8  2  0
  8  9  1  0
  9 10  2  0
 10 11  1  0
M  END
>  <Gold.Gold.Protein.RotatedWaterAtoms>  (599) 


>  <Gold.Id.Protein>  (599) 


>  <Gold.PLP.Chemscore.CHOScore>  (599) 
0.0000

>  <Gold.PLP.Chemscore.Hbond>  (599) 
1.0000

>  <Gold.PLP.Chemscore.Internal.Correction>  (599) 
0.0000

>  <Gold.PLP.Chemscore.Metal>  (599) 
0.0000

>  <Gold.PLP.Fitness>  (599) 
45.2899

>  <Gold.PLP.PLP>  (599) 
-42.4444

>  <Gold.PLP.ligand.clash>  (599) 
0.0000

>  <Gold.PLP.ligand.torsion>  (599) 
0.0772

>  <Gold.PLP.part.buried>  (599) 
-6.4690

>  <Gold.PLP.part.hbond>  (599) 
-0.6863

>  <Gold.PLP.part.metal>  (599) 
0.0000

>  <Gold.PLP.part.nonpolar>  (599) 
-34.8280

>  <Gold.PLP.part.repulsive>  (599) 
0.1963

>  <Gold.Protein.RotatedAtoms>  (599) 


>  <Gold.Protein.RotatedTorsions>  (599) 


>  <Gold.Protein.RotatedWaterAtoms>  (599) 


>  <Gold.Version>  (599) 
5.3.0

>  <PLP.Chemscore.CHOScore>  (599) 


>  <PLP.Chemscore.Hbond>  (599) 


>  <PLP.Chemscore.Internal.Correction>  (599) 


>  <PLP.Chemscore.Metal>  (599) 


>  <PLP.Fitness>  (599) 


>  <PLP.PLP>  (599) 


>  <PLP.ligand.clash>  (599) 


>  <PLP.ligand.torsion>  (599) 


>  <PLP.part.buried>  (599) 


>  <PLP.part.hbond>  (599) 


>  <PLP.part.metal>  (599) 


>  <PLP.part.nonpolar>  (599) 


>  <PLP.part.repulsive>  (599) 


>  <RMSD>  (599) 
0.428070490903

>  <Torsion>  (599) 
152.444048788

>  <TorsionO>  (599) 
39.0580871276

>  <TorsionR>  (599) 
168.497864085

>  <Version>  (599) 


>  <product>  (599) 
69|Compound_26|Compounds_3D_F|sdf|12|dock1|1

>  <rmsd>  (599) 
-1

$$$$
974|750794_1404|Aromatic_primary_amines_F|sdf|194|dock3|1
     RDKit          3D

 14 14  0  0  0  0  0  0  0  0999 V2000
  -13.6355  -18.1936    9.4145 C   0  0  0  0  0  0  0  0  0  0  0  0
  -13.2544  -19.4497   10.1732 C   0  0  0  0  0  0  0  0  0  0  0  0
  -11.8731  -19.3506   10.5383 O   0  0  0  0  0  0  0  0  0  0  0  0
  -11.6148  -18.5085   11.5823 C   0  0  0  0  0  0  0  0  0  0  0  0
  -12.3947  -18.2810   12.5004 O   0  0  0  0  0  0  0  0  0  0  0  0
  -10.3031  -17.8985   11.4902 C   0  0  0  0  0  0  0  0  0  0  0  0
   -9.1673  -18.4974   10.9931 C   0  0  0  0  0  0  0  0  0  0  0  0
   -8.1448  -17.6055   11.0758 O   0  0  0  0  0  0  0  0  0  0  0  0
   -8.7110  -16.4917   11.6237 C   0  0  0  0  0  0  0  0  0  0  0  0
   -9.9933  -16.6110   11.8915 N   0  0  0  0  0  0  0  0  0  0  0  0
   -7.9611  -15.3718   11.8549 N   0  0  0  0  0  0  0  0  0  0  0  0
   -8.5046  -14.1249   12.0676 C   0  0  0  0  0  0  0  0  0  0  0  0
   -9.6950  -13.8313   12.1035 O   0  0  0  0  0  0  0  0  0  0  0  0
   -7.4448  -13.0785   12.3021 C   0  0  0  0  0  0  0  0  0  0  0  0
  1  2  1  0
  2  3  1  0
  3  4  1  0
  4  5  2  0
  4  6  1  0
  6  7  2  0
  6 10  1  0
  7  8  1  0
  8  9  1  0
  9 10  2  0
  9 11  1  0
 11 12  1  0
 12 13  2  0
 12 14  1  0
M  END
>  <Gold.Gold.Protein.RotatedWaterAtoms>  (600) 


>  <Gold.Id.Protein>  (600) 


>  <Gold.PLP.Chemscore.CHOScore>  (600) 
0.0000

>  <Gold.PLP.Chemscore.Hbond>  (600) 
2.0000

>  <Gold.PLP.Chemscore.Internal.Correction>  (600) 
0.0053

>  <Gold.PLP.Chemscore.Metal>  (600) 
0.0000

>  <Gold.PLP.Fitness>  (600) 
36.8047

>  <Gold.PLP.PLP>  (600) 
-32.7996

>  <Gold.PLP.ligand.clash>  (600) 
0.0000

>  <Gold.PLP.ligand.torsion>  (600) 
1.0001

>  <Gold.PLP.part.buried>  (600) 
-6.5206

>  <Gold.PLP.part.hbond>  (600) 
-2.9156

>  <Gold.PLP.part.metal>  (600) 
0.0000

>  <Gold.PLP.part.nonpolar>  (600) 
-23.4080

>  <Gold.PLP.part.repulsive>  (600) 
0.3100

>  <Gold.Protein.RotatedAtoms>  (600) 


>  <Gold.Protein.RotatedTorsions>  (600) 


>  <Gold.Protein.RotatedWaterAtoms>  (600) 


>  <Gold.Version>  (600) 
5.3.0

>  <PLP.Chemscore.CHOScore>  (600) 


>  <PLP.Chemscore.Hbond>  (600) 


>  <PLP.Chemscore.Internal.Correction>  (600) 


>  <PLP.Chemscore.Metal>  (600) 


>  <PLP.Fitness>  (600) 


>  <PLP.PLP>  (600) 


>  <PLP.ligand.clash>  (600) 


>  <PLP.ligand.torsion>  (600) 


>  <PLP.part.buried>  (600) 


>  <PLP.part.hbond>  (600) 


>  <PLP.part.metal>  (600) 


>  <PLP.part.nonpolar>  (600) 


>  <PLP.part.repulsive>  (600) 


>  <RMSD>  (600) 
0.499949349045

>  <Torsion>  (600) 
159.973716791

>  <TorsionO>  (600) 
19.1052109979

>  <TorsionR>  (600) 
179.078927789

>  <Version>  (600) 


>  <product>  (600) 
69|Compound_26|Compounds_3D_F|sdf|12|dock1|1

>  <rmsd>  (600) 
-1

$$$$
1884|M3006_1781|Aromatic_primary_amines_F|sdf|361|dock3|1
     RDKit          3D

 31 34  0  0  0  0  0  0  0  0999 V2000
  -14.4210  -19.8971    8.7934 C   0  0  0  0  0  0  0  0  0  0  0  0
  -13.9762  -19.4927   10.1894 C   0  0  0  0  0  0  0  0  0  0  0  0
  -14.1356  -20.6409   11.1817 C   0  0  0  0  0  0  0  0  0  0  0  0
  -13.5197  -20.3070   12.5189 C   0  0  0  0  0  0  0  0  0  0  0  0
  -12.9307  -19.2724   12.7954 O   0  0  0  0  0  0  0  0  0  0  0  0
  -13.7110  -21.3451   13.3845 O   0  0  0  0  0  0  0  0  0  0  0  0
  -12.9425  -21.2698   14.5900 C   0  0  0  0  0  0  0  0  0  0  0  0
  -12.8849  -22.6189   15.2889 C   0  0  0  0  0  0  0  0  0  0  0  0
  -11.6552  -22.4172   16.1494 C   0  0  0  0  0  0  0  0  0  0  0  0
  -11.2420  -23.7410   16.7624 C   0  0  0  0  0  0  0  0  0  0  0  0
  -12.3024  -24.2223   17.5862 O   0  0  0  0  0  0  0  0  0  0  0  0
  -13.7888  -24.3384   16.9603 P   0  0  0  0  0  0  0  0  0  0  0  0
  -14.8775  -24.6795   17.9243 O   0  0  0  0  0  0  0  0  0  0  0  0
  -13.9839  -22.9641   16.1174 O   0  0  0  0  0  0  0  0  0  0  0  0
  -13.5991  -25.4435   15.8075 O   0  0  0  0  0  0  0  0  0  0  0  0
  -10.6922  -21.8161   15.2889 O   0  0  0  0  0  0  0  0  0  0  0  0
  -11.4338  -20.9664   14.3653 C   0  0  0  0  0  0  0  0  0  0  0  0
  -10.9052  -21.2017   13.0342 N   0  0  0  0  0  0  0  0  0  0  0  0
  -10.7814  -22.4114   12.4013 C   0  0  0  0  0  0  0  0  0  0  0  0
  -10.2640  -22.2918   11.1953 N   0  0  0  0  0  0  0  0  0  0  0  0
  -10.0274  -20.9476   11.0424 C   0  0  0  0  0  0  0  0  0  0  0  0
  -10.4203  -20.2487   12.1733 C   0  0  0  0  0  0  0  0  0  0  0  0
  -10.3338  -18.9216   12.3641 N   0  0  0  0  0  0  0  0  0  0  0  0
   -9.8057  -18.2730   11.3024 C   0  0  0  0  0  0  0  0  0  0  0  0
   -9.3808  -18.8370   10.1545 N   0  0  0  0  0  0  0  0  0  0  0  0
   -9.4895  -20.1691   10.0244 C   0  0  0  0  0  0  0  0  0  0  0  0
   -9.0330  -20.6622    8.8349 O   0  0  0  0  0  0  0  0  0  0  0  0
   -9.7222  -16.8901   11.4793 N   0  0  0  0  0  0  0  0  0  0  0  0
   -8.5796  -16.1798   11.7761 C   0  0  0  0  0  0  0  0  0  0  0  0
   -7.4445  -16.6221   11.9131 O   0  0  0  0  0  0  0  0  0  0  0  0
   -8.8524  -14.7024   11.8973 C   0  0  0  0  0  0  0  0  0  0  0  0
  1  2  1  0
  2  3  1  0
  3  4  1  0
  4  5  2  0
  4  6  1  0
  6  7  1  0
  7  8  1  0
  7 17  1  0
  8  9  1  0
  8 14  1  0
  9 10  1  0
  9 16  1  0
 10 11  1  0
 11 12  1  0
 12 13  2  0
 12 14  1  0
 12 15  1  0
 16 17  1  0
 17 18  1  0
 18 19  1  0
 18 22  1  0
 19 20  2  0
 20 21  1  0
 21 22  2  0
 21 26  1  0
 22 23  1  0
 23 24  2  0
 24 25  1  0
 24 28  1  0
 25 26  2  0
 26 27  1  0
 28 29  1  0
 29 30  2  0
 29 31  1  0
M  END
>  <Gold.Gold.Protein.RotatedWaterAtoms>  (601) 


>  <Gold.Id.Protein>  (601) 


>  <Gold.PLP.Chemscore.CHOScore>  (601) 
0.0000

>  <Gold.PLP.Chemscore.Hbond>  (601) 
1.2080

>  <Gold.PLP.Chemscore.Internal.Correction>  (601) 
0.1232

>  <Gold.PLP.Chemscore.Metal>  (601) 
0.0000

>  <Gold.PLP.Fitness>  (601) 
47.7145

>  <Gold.PLP.PLP>  (601) 
-46.0218

>  <Gold.PLP.ligand.clash>  (601) 
0.0000

>  <Gold.PLP.ligand.torsion>  (601) 
1.0272

>  <Gold.PLP.part.buried>  (601) 
-2.2958

>  <Gold.PLP.part.hbond>  (601) 
-4.0214

>  <Gold.PLP.part.metal>  (601) 
0.0000

>  <Gold.PLP.part.nonpolar>  (601) 
-41.4699

>  <Gold.PLP.part.repulsive>  (601) 
0.9524

>  <Gold.Protein.RotatedAtoms>  (601) 


>  <Gold.Protein.RotatedTorsions>  (601) 


>  <Gold.Protein.RotatedWaterAtoms>  (601) 


>  <Gold.Version>  (601) 
5.3.0

>  <PLP.Chemscore.CHOScore>  (601) 


>  <PLP.Chemscore.Hbond>  (601) 


>  <PLP.Chemscore.Internal.Correction>  (601) 


>  <PLP.Chemscore.Metal>  (601) 


>  <PLP.Fitness>  (601) 


>  <PLP.PLP>  (601) 


>  <PLP.ligand.clash>  (601) 


>  <PLP.ligand.torsion>  (601) 


>  <PLP.part.buried>  (601) 


>  <PLP.part.hbond>  (601) 


>  <PLP.part.metal>  (601) 


>  <PLP.part.nonpolar>  (601) 


>  <PLP.part.repulsive>  (601) 


>  <RMSD>  (601) 
0.291955871297

>  <Torsion>  (601) 
171.923704933

>  <TorsionO>  (601) 
6.03609353985

>  <TorsionR>  (601) 
177.959798473

>  <Version>  (601) 


>  <product>  (601) 
69|Compound_26|Compounds_3D_F|sdf|12|dock1|1

>  <rmsd>  (601) 
-1

$$$$
193|32168_281|Aromatic_primary_amines_F|sdf|39|dock6|1
     RDKit          3D

 23 25  0  0  0  0  0  0  0  0999 V2000
   -7.8439  -12.1461   11.8919 C   0  0  0  0  0  0  0  0  0  0  0  0
   -8.5691  -13.4472   11.6781 C   0  0  0  0  0  0  0  0  0  0  0  0
   -9.7886  -13.4981   11.5208 O   0  0  0  0  0  0  0  0  0  0  0  0
   -7.7264  -14.5390   11.7020 N   0  0  0  0  0  0  0  0  0  0  0  0
   -8.1889  -15.8197   11.5323 C   0  0  0  0  0  0  0  0  0  0  0  0
   -9.4747  -16.2039   11.8163 N   0  0  0  0  0  0  0  0  0  0  0  0
   -9.5964  -17.5375   11.5379 C   0  0  0  0  0  0  0  0  0  0  0  0
  -10.6643  -18.4283   11.6415 C   0  0  0  0  0  0  0  0  0  0  0  0
  -10.4051  -19.7586   11.2778 C   0  0  0  0  0  0  0  0  0  0  0  0
   -9.1530  -20.1507   10.7795 C   0  0  0  0  0  0  0  0  0  0  0  0
   -8.1017  -19.2294   10.6839 C   0  0  0  0  0  0  0  0  0  0  0  0
   -8.3349  -17.9032   11.0783 C   0  0  0  0  0  0  0  0  0  0  0  0
   -7.4773  -16.8281   11.0838 N   0  0  0  0  0  0  0  0  0  0  0  0
   -8.8530  -21.7658   10.2429 Cl  0  0  0  0  0  0  0  0  0  0  0  0
  -11.4669  -20.6323   11.3734 O   0  0  0  0  0  0  0  0  0  0  0  0
  -12.5262  -20.4408   10.5053 C   0  0  0  0  0  0  0  0  0  0  0  0
  -13.3188  -19.2846   10.5304 C   0  0  0  0  0  0  0  0  0  0  0  0
  -14.3665  -19.1344    9.6224 C   0  0  0  0  0  0  0  0  0  0  0  0
  -14.6219  -20.1279    8.6796 C   0  0  0  0  0  0  0  0  0  0  0  0
  -13.8238  -21.2756    8.6345 C   0  0  0  0  0  0  0  0  0  0  0  0
  -12.7674  -21.4342    9.5416 C   0  0  0  0  0  0  0  0  0  0  0  0
  -11.7588  -22.8458    9.4996 Cl  0  0  0  0  0  0  0  0  0  0  0  0
  -14.1988  -22.4584    7.4296 Cl  0  0  0  0  0  0  0  0  0  0  0  0
  1  2  1  0
  2  3  2  0
  2  4  1  0
  4  5  1  0
  5  6  1  0
  5 13  2  0
  6  7  1  0
  7  8  2  0
  7 12  1  0
  8  9  1  0
  9 10  2  0
  9 15  1  0
 10 11  1  0
 10 14  1  0
 11 12  2  0
 12 13  1  0
 15 16  1  0
 16 17  2  0
 16 21  1  0
 17 18  1  0
 18 19  2  0
 19 20  1  0
 20 21  2  0
 20 23  1  0
 21 22  1  0
M  END
>  <Gold.Gold.Protein.RotatedWaterAtoms>  (602) 


>  <Gold.Id.Protein>  (602) 


>  <Gold.PLP.Chemscore.CHOScore>  (602) 
0.0000

>  <Gold.PLP.Chemscore.Hbond>  (602) 
1.0000

>  <Gold.PLP.Chemscore.Internal.Correction>  (602) 
0.0086

>  <Gold.PLP.Chemscore.Metal>  (602) 
0.0000

>  <Gold.PLP.Fitness>  (602) 
50.7139

>  <Gold.PLP.PLP>  (602) 
-48.1706

>  <Gold.PLP.ligand.clash>  (602) 
0.0000

>  <Gold.PLP.ligand.torsion>  (602) 
0.2327

>  <Gold.PLP.part.buried>  (602) 
-6.5205

>  <Gold.PLP.part.hbond>  (602) 
-2.0000

>  <Gold.PLP.part.metal>  (602) 
0.0000

>  <Gold.PLP.part.nonpolar>  (602) 
-39.3857

>  <Gold.PLP.part.repulsive>  (602) 
0.3298

>  <Gold.Protein.RotatedAtoms>  (602) 


>  <Gold.Protein.RotatedTorsions>  (602) 


>  <Gold.Protein.RotatedWaterAtoms>  (602) 


>  <Gold.Version>  (602) 
5.3.0

>  <PLP.Chemscore.CHOScore>  (602) 


>  <PLP.Chemscore.Hbond>  (602) 


>  <PLP.Chemscore.Internal.Correction>  (602) 


>  <PLP.Chemscore.Metal>  (602) 


>  <PLP.Fitness>  (602) 


>  <PLP.PLP>  (602) 


>  <PLP.ligand.clash>  (602) 


>  <PLP.ligand.torsion>  (602) 


>  <PLP.part.buried>  (602) 


>  <PLP.part.hbond>  (602) 


>  <PLP.part.metal>  (602) 


>  <PLP.part.nonpolar>  (602) 


>  <PLP.part.repulsive>  (602) 


>  <RMSD>  (602) 
0.439733510035

>  <Torsion>  (602) 
177.672185574

>  <TorsionO>  (602) 
4.31728583372

>  <TorsionR>  (602) 
173.35489974

>  <Version>  (602) 


>  <product>  (602) 
69|Compound_26|Compounds_3D_F|sdf|12|dock1|1

>  <rmsd>  (602) 
-1

$$$$
17|Compound_8|Compounds_3D_F|sdf|4|dock7|1
     RDKit          3D

  8  7  0  0  0  0  0  0  0  0999 V2000
   -4.5115  -12.5006   13.0997 O   0  0  0  0  0  0  0  0  0  0  0  0
   -5.7980  -13.1217   13.0879 C   0  0  0  0  0  0  0  0  0  0  0  0
   -6.0763  -13.6931   11.6967 C   0  0  0  0  0  0  0  0  0  0  0  0
   -5.1826  -14.8274   11.4474 N   0  0  0  0  0  0  0  0  0  0  0  0
   -5.2738  -15.9374   12.2069 C   0  0  0  0  0  0  0  0  0  0  0  0
   -6.0963  -15.9966   13.0955 O   0  0  0  0  0  0  0  0  0  0  0  0
   -4.3160  -17.1517   11.9401 B   0  0  0  0  0  0  0  0  0  0  0  0
   -7.5304  -14.1628   11.6195 C   0  0  0  0  0  0  0  0  0  0  0  0
  1  2  1  0
  2  3  1  0
  3  4  1  0
  3  8  1  0
  4  5  1  0
  5  6  2  0
  5  7  1  0
M  END
>  <Gold.Gold.Protein.RotatedWaterAtoms>  (603) 


>  <Gold.Id.Protein>  (603) 


>  <Gold.PLP.Chemscore.CHOScore>  (603) 
0.0000

>  <Gold.PLP.Chemscore.Hbond>  (603) 
1.9750

>  <Gold.PLP.Chemscore.Internal.Correction>  (603) 
0.0000

>  <Gold.PLP.Chemscore.Metal>  (603) 
0.0000

>  <Gold.PLP.Fitness>  (603) 
28.9816

>  <Gold.PLP.PLP>  (603) 
-23.1645

>  <Gold.PLP.ligand.clash>  (603) 
0.0000

>  <Gold.PLP.ligand.torsion>  (603) 
0.0540

>  <Gold.PLP.part.buried>  (603) 
-2.5467

>  <Gold.PLP.part.hbond>  (603) 
-4.1968

>  <Gold.PLP.part.metal>  (603) 
0.0000

>  <Gold.PLP.part.nonpolar>  (603) 
-16.7212

>  <Gold.PLP.part.repulsive>  (603) 
0.1893

>  <Gold.Protein.RotatedAtoms>  (603) 


>  <Gold.Protein.RotatedTorsions>  (603) 


>  <Gold.Protein.RotatedWaterAtoms>  (603) 


>  <Gold.Version>  (603) 
5.3.0

>  <PLP.Chemscore.CHOScore>  (603) 


>  <PLP.Chemscore.Hbond>  (603) 


>  <PLP.Chemscore.Internal.Correction>  (603) 


>  <PLP.Chemscore.Metal>  (603) 


>  <PLP.Fitness>  (603) 


>  <PLP.PLP>  (603) 


>  <PLP.ligand.clash>  (603) 


>  <PLP.ligand.torsion>  (603) 


>  <PLP.part.buried>  (603) 


>  <PLP.part.hbond>  (603) 


>  <PLP.part.metal>  (603) 


>  <PLP.part.nonpolar>  (603) 


>  <PLP.part.repulsive>  (603) 


>  <Version>  (603) 


$$$$
94|664022_40|Aromatic_carboxylic_acids_F|sdf|24|dock1|1
     RDKit          3D

 12 12  0  0  0  0  0  0  0  0999 V2000
   -8.2596  -17.1212   11.4595 C   0  0  0  0  0  0  0  0  0  0  0  0
   -7.6366  -15.8367   11.6688 N   0  0  0  0  0  0  0  0  0  0  0  0
   -8.3409  -14.6553   11.5719 C   0  0  0  0  0  0  0  0  0  0  0  0
   -9.5296  -14.5547   11.2978 O   0  0  0  0  0  0  0  0  0  0  0  0
   -7.5420  -13.4431   11.8503 C   0  0  0  0  0  0  0  0  0  0  0  0
   -8.1627  -12.1983   11.6738 C   0  0  0  0  0  0  0  0  0  0  0  0
   -7.4390  -11.0301   11.9055 C   0  0  0  0  0  0  0  0  0  0  0  0
   -6.1069  -11.0910   12.3103 C   0  0  0  0  0  0  0  0  0  0  0  0
   -5.4897  -12.3324   12.4853 C   0  0  0  0  0  0  0  0  0  0  0  0
   -6.2035  -13.5136   12.2549 C   0  0  0  0  0  0  0  0  0  0  0  0
   -5.3062  -15.1564   12.5638 Br  0  0  0  0  0  0  0  0  0  0  0  0
   -8.1960   -9.5005   11.6887 Cl  0  0  0  0  0  0  0  0  0  0  0  0
  1  2  1  0
  2  3  1  0
  3  4  2  0
  3  5  1  0
  5  6  2  0
  5 10  1  0
  6  7  1  0
  7  8  2  0
  7 12  1  0
  8  9  1  0
  9 10  2  0
 10 11  1  0
M  END
>  <Gold.Gold.Protein.RotatedWaterAtoms>  (604) 


>  <Gold.Id.Protein>  (604) 


>  <Gold.PLP.Chemscore.CHOScore>  (604) 
0.0000

>  <Gold.PLP.Chemscore.Hbond>  (604) 
0.4160

>  <Gold.PLP.Chemscore.Internal.Correction>  (604) 
0.0004

>  <Gold.PLP.Chemscore.Metal>  (604) 
0.0000

>  <Gold.PLP.Fitness>  (604) 
48.9046

>  <Gold.PLP.PLP>  (604) 
-47.6744

>  <Gold.PLP.ligand.clash>  (604) 
0.0000

>  <Gold.PLP.ligand.torsion>  (604) 
0.0091

>  <Gold.PLP.part.buried>  (604) 
-7.3578

>  <Gold.PLP.part.hbond>  (604) 
-0.5127

>  <Gold.PLP.part.metal>  (604) 
0.0000

>  <Gold.PLP.part.nonpolar>  (604) 
-40.3098

>  <Gold.PLP.part.repulsive>  (604) 
0.1684

>  <Gold.Protein.RotatedAtoms>  (604) 


>  <Gold.Protein.RotatedTorsions>  (604) 


>  <Gold.Protein.RotatedWaterAtoms>  (604) 


>  <Gold.Version>  (604) 
5.3.0

>  <PLP.Chemscore.CHOScore>  (604) 


>  <PLP.Chemscore.Hbond>  (604) 


>  <PLP.Chemscore.Internal.Correction>  (604) 


>  <PLP.Chemscore.Metal>  (604) 


>  <PLP.Fitness>  (604) 


>  <PLP.PLP>  (604) 


>  <PLP.ligand.clash>  (604) 


>  <PLP.ligand.torsion>  (604) 


>  <PLP.part.buried>  (604) 


>  <PLP.part.hbond>  (604) 


>  <PLP.part.metal>  (604) 


>  <PLP.part.nonpolar>  (604) 


>  <PLP.part.repulsive>  (604) 


>  <RMSD>  (604) 
0.30972197429

>  <Torsion>  (604) 
172.929186758

>  <TorsionO>  (604) 
24.4968065243

>  <TorsionR>  (604) 
162.574006718

>  <Version>  (604) 


>  <product>  (604) 
17|Compound_8|Compounds_3D_F|sdf|4|dock7|1

>  <rmsd>  (604) 
-1

$$$$
110|565385_49|Aromatic_carboxylic_acids_F|sdf|29|dock1|1
     RDKit          3D

 13 13  0  0  0  0  0  0  0  0999 V2000
  -10.1118  -17.9021   11.6320 C   0  0  0  0  0  0  0  0  0  0  0  0
   -9.7537  -16.5043   11.6546 N   0  0  0  0  0  0  0  0  0  0  0  0
   -8.4330  -16.1187   11.7930 C   0  0  0  0  0  0  0  0  0  0  0  0
   -7.5159  -16.9298   11.9008 O   0  0  0  0  0  0  0  0  0  0  0  0
   -8.1234  -14.6552   11.8105 C   0  0  0  0  0  0  0  0  0  0  0  0
   -9.0636  -13.6551   11.5375 C   0  0  0  0  0  0  0  0  0  0  0  0
   -8.6966  -12.3009   11.5726 C   0  0  0  0  0  0  0  0  0  0  0  0
   -7.3879  -11.9195   11.8809 C   0  0  0  0  0  0  0  0  0  0  0  0
   -6.4486  -12.9235   12.1551 C   0  0  0  0  0  0  0  0  0  0  0  0
   -6.8098  -14.2750   12.1207 C   0  0  0  0  0  0  0  0  0  0  0  0
   -4.6444  -12.5025   12.5849 Br  0  0  0  0  0  0  0  0  0  0  0  0
   -6.9476  -10.6242   11.9372 O   0  0  0  0  0  0  0  0  0  0  0  0
   -7.9020   -9.5910   11.7256 C   0  0  0  0  0  0  0  0  0  0  0  0
  1  2  1  0
  2  3  1  0
  3  4  2  0
  3  5  1  0
  5  6  2  0
  5 10  1  0
  6  7  1  0
  7  8  2  0
  8  9  1  0
  8 12  1  0
  9 10  2  0
  9 11  1  0
 12 13  1  0
M  END
>  <Gold.Gold.Protein.RotatedWaterAtoms>  (605) 


>  <Gold.Id.Protein>  (605) 


>  <Gold.PLP.Chemscore.CHOScore>  (605) 
0.0000

>  <Gold.PLP.Chemscore.Hbond>  (605) 
1.0000

>  <Gold.PLP.Chemscore.Internal.Correction>  (605) 
0.0000

>  <Gold.PLP.Chemscore.Metal>  (605) 
0.0000

>  <Gold.PLP.Fitness>  (605) 
43.9775

>  <Gold.PLP.PLP>  (605) 
-41.0517

>  <Gold.PLP.ligand.clash>  (605) 
0.0000

>  <Gold.PLP.ligand.torsion>  (605) 
0.0371

>  <Gold.PLP.part.buried>  (605) 
-3.7367

>  <Gold.PLP.part.hbond>  (605) 
-1.0000

>  <Gold.PLP.part.metal>  (605) 
0.0000

>  <Gold.PLP.part.nonpolar>  (605) 
-36.7483

>  <Gold.PLP.part.repulsive>  (605) 
0.4054

>  <Gold.Protein.RotatedAtoms>  (605) 


>  <Gold.Protein.RotatedTorsions>  (605) 


>  <Gold.Protein.RotatedWaterAtoms>  (605) 


>  <Gold.Version>  (605) 
5.3.0

>  <PLP.Chemscore.CHOScore>  (605) 


>  <PLP.Chemscore.Hbond>  (605) 


>  <PLP.Chemscore.Internal.Correction>  (605) 


>  <PLP.Chemscore.Metal>  (605) 


>  <PLP.Fitness>  (605) 


>  <PLP.PLP>  (605) 


>  <PLP.ligand.clash>  (605) 


>  <PLP.ligand.torsion>  (605) 


>  <PLP.part.buried>  (605) 


>  <PLP.part.hbond>  (605) 


>  <PLP.part.metal>  (605) 


>  <PLP.part.nonpolar>  (605) 


>  <PLP.part.repulsive>  (605) 


>  <RMSD>  (605) 
0.319376411377

>  <Torsion>  (605) 
169.460450784

>  <TorsionO>  (605) 
9.7963905484

>  <TorsionR>  (605) 
179.256841332

>  <Version>  (605) 


>  <product>  (605) 
17|Compound_8|Compounds_3D_F|sdf|4|dock7|1

>  <rmsd>  (605) 
-1

$$$$
128|137677_56|Aromatic_carboxylic_acids_F|sdf|33|dock1|1
     RDKit          3D

 11 11  0  0  0  0  0  0  0  0999 V2000
   -8.6116  -16.1544   11.8887 C   0  0  0  0  0  0  0  0  0  0  0  0
   -7.9978  -14.8484   11.9215 N   0  0  0  0  0  0  0  0  0  0  0  0
   -8.7778  -13.7008   11.8756 C   0  0  0  0  0  0  0  0  0  0  0  0
  -10.0002  -13.7896   11.8139 O   0  0  0  0  0  0  0  0  0  0  0  0
   -8.0808  -12.3609   11.9017 C   0  0  0  0  0  0  0  0  0  0  0  0
   -8.7916  -11.1851   11.5813 C   0  0  0  0  0  0  0  0  0  0  0  0
   -8.1781   -9.9267   11.5989 C   0  0  0  0  0  0  0  0  0  0  0  0
   -6.8391   -9.8089   11.9369 C   0  0  0  0  0  0  0  0  0  0  0  0
   -6.1124  -10.9502   12.2575 C   0  0  0  0  0  0  0  0  0  0  0  0
   -6.7171  -12.2196   12.2428 C   0  0  0  0  0  0  0  0  0  0  0  0
   -5.5419  -13.6455   12.7121 Br  0  0  0  0  0  0  0  0  0  0  0  0
  1  2  1  0
  2  3  1  0
  3  4  2  0
  3  5  1  0
  5  6  2  0
  5 10  1  0
  6  7  1  0
  7  8  2  0
  8  9  1  0
  9 10  2  0
 10 11  1  0
M  END
>  <Gold.Gold.Protein.RotatedWaterAtoms>  (606) 


>  <Gold.Id.Protein>  (606) 


>  <Gold.PLP.Chemscore.CHOScore>  (606) 
0.0000

>  <Gold.PLP.Chemscore.Hbond>  (606) 
1.0000

>  <Gold.PLP.Chemscore.Internal.Correction>  (606) 
0.0000

>  <Gold.PLP.Chemscore.Metal>  (606) 
0.0000

>  <Gold.PLP.Fitness>  (606) 
45.2899

>  <Gold.PLP.PLP>  (606) 
-42.4444

>  <Gold.PLP.ligand.clash>  (606) 
0.0000

>  <Gold.PLP.ligand.torsion>  (606) 
0.0772

>  <Gold.PLP.part.buried>  (606) 
-6.4690

>  <Gold.PLP.part.hbond>  (606) 
-0.6863

>  <Gold.PLP.part.metal>  (606) 
0.0000

>  <Gold.PLP.part.nonpolar>  (606) 
-34.8280

>  <Gold.PLP.part.repulsive>  (606) 
0.1963

>  <Gold.Protein.RotatedAtoms>  (606) 


>  <Gold.Protein.RotatedTorsions>  (606) 


>  <Gold.Protein.RotatedWaterAtoms>  (606) 


>  <Gold.Version>  (606) 
5.3.0

>  <PLP.Chemscore.CHOScore>  (606) 


>  <PLP.Chemscore.Hbond>  (606) 


>  <PLP.Chemscore.Internal.Correction>  (606) 


>  <PLP.Chemscore.Metal>  (606) 


>  <PLP.Fitness>  (606) 


>  <PLP.PLP>  (606) 


>  <PLP.ligand.clash>  (606) 


>  <PLP.ligand.torsion>  (606) 


>  <PLP.part.buried>  (606) 


>  <PLP.part.hbond>  (606) 


>  <PLP.part.metal>  (606) 


>  <PLP.part.nonpolar>  (606) 


>  <PLP.part.repulsive>  (606) 


>  <RMSD>  (606) 
0.428070490903

>  <Torsion>  (606) 
152.444048788

>  <TorsionO>  (606) 
39.0580871276

>  <TorsionR>  (606) 
168.497864085

>  <Version>  (606) 


>  <product>  (606) 
17|Compound_8|Compounds_3D_F|sdf|4|dock7|1

>  <rmsd>  (606) 
-1

$$$$
974|750794_1404|Aromatic_primary_amines_F|sdf|194|dock3|1
     RDKit          3D

 14 14  0  0  0  0  0  0  0  0999 V2000
  -13.6355  -18.1936    9.4145 C   0  0  0  0  0  0  0  0  0  0  0  0
  -13.2544  -19.4497   10.1732 C   0  0  0  0  0  0  0  0  0  0  0  0
  -11.8731  -19.3506   10.5383 O   0  0  0  0  0  0  0  0  0  0  0  0
  -11.6148  -18.5085   11.5823 C   0  0  0  0  0  0  0  0  0  0  0  0
  -12.3947  -18.2810   12.5004 O   0  0  0  0  0  0  0  0  0  0  0  0
  -10.3031  -17.8985   11.4902 C   0  0  0  0  0  0  0  0  0  0  0  0
   -9.1673  -18.4974   10.9931 C   0  0  0  0  0  0  0  0  0  0  0  0
   -8.1448  -17.6055   11.0758 O   0  0  0  0  0  0  0  0  0  0  0  0
   -8.7110  -16.4917   11.6237 C   0  0  0  0  0  0  0  0  0  0  0  0
   -9.9933  -16.6110   11.8915 N   0  0  0  0  0  0  0  0  0  0  0  0
   -7.9611  -15.3718   11.8549 N   0  0  0  0  0  0  0  0  0  0  0  0
   -8.5046  -14.1249   12.0676 C   0  0  0  0  0  0  0  0  0  0  0  0
   -9.6950  -13.8313   12.1035 O   0  0  0  0  0  0  0  0  0  0  0  0
   -7.4448  -13.0785   12.3021 C   0  0  0  0  0  0  0  0  0  0  0  0
  1  2  1  0
  2  3  1  0
  3  4  1  0
  4  5  2  0
  4  6  1  0
  6  7  2  0
  6 10  1  0
  7  8  1  0
  8  9  1  0
  9 10  2  0
  9 11  1  0
 11 12  1  0
 12 13  2  0
 12 14  1  0
M  END
>  <Gold.Gold.Protein.RotatedWaterAtoms>  (607) 


>  <Gold.Id.Protein>  (607) 


>  <Gold.PLP.Chemscore.CHOScore>  (607) 
0.0000

>  <Gold.PLP.Chemscore.Hbond>  (607) 
2.0000

>  <Gold.PLP.Chemscore.Internal.Correction>  (607) 
0.0053

>  <Gold.PLP.Chemscore.Metal>  (607) 
0.0000

>  <Gold.PLP.Fitness>  (607) 
36.8047

>  <Gold.PLP.PLP>  (607) 
-32.7996

>  <Gold.PLP.ligand.clash>  (607) 
0.0000

>  <Gold.PLP.ligand.torsion>  (607) 
1.0001

>  <Gold.PLP.part.buried>  (607) 
-6.5206

>  <Gold.PLP.part.hbond>  (607) 
-2.9156

>  <Gold.PLP.part.metal>  (607) 
0.0000

>  <Gold.PLP.part.nonpolar>  (607) 
-23.4080

>  <Gold.PLP.part.repulsive>  (607) 
0.3100

>  <Gold.Protein.RotatedAtoms>  (607) 


>  <Gold.Protein.RotatedTorsions>  (607) 


>  <Gold.Protein.RotatedWaterAtoms>  (607) 


>  <Gold.Version>  (607) 
5.3.0

>  <PLP.Chemscore.CHOScore>  (607) 


>  <PLP.Chemscore.Hbond>  (607) 


>  <PLP.Chemscore.Internal.Correction>  (607) 


>  <PLP.Chemscore.Metal>  (607) 


>  <PLP.Fitness>  (607) 


>  <PLP.PLP>  (607) 


>  <PLP.ligand.clash>  (607) 


>  <PLP.ligand.torsion>  (607) 


>  <PLP.part.buried>  (607) 


>  <PLP.part.hbond>  (607) 


>  <PLP.part.metal>  (607) 


>  <PLP.part.nonpolar>  (607) 


>  <PLP.part.repulsive>  (607) 


>  <RMSD>  (607) 
0.499949349045

>  <Torsion>  (607) 
159.973716791

>  <TorsionO>  (607) 
19.1052109979

>  <TorsionR>  (607) 
179.078927789

>  <Version>  (607) 


>  <product>  (607) 
17|Compound_8|Compounds_3D_F|sdf|4|dock7|1

>  <rmsd>  (607) 
-1

$$$$
1884|M3006_1781|Aromatic_primary_amines_F|sdf|361|dock3|1
     RDKit          3D

 31 34  0  0  0  0  0  0  0  0999 V2000
  -14.4210  -19.8971    8.7934 C   0  0  0  0  0  0  0  0  0  0  0  0
  -13.9762  -19.4927   10.1894 C   0  0  0  0  0  0  0  0  0  0  0  0
  -14.1356  -20.6409   11.1817 C   0  0  0  0  0  0  0  0  0  0  0  0
  -13.5197  -20.3070   12.5189 C   0  0  0  0  0  0  0  0  0  0  0  0
  -12.9307  -19.2724   12.7954 O   0  0  0  0  0  0  0  0  0  0  0  0
  -13.7110  -21.3451   13.3845 O   0  0  0  0  0  0  0  0  0  0  0  0
  -12.9425  -21.2698   14.5900 C   0  0  0  0  0  0  0  0  0  0  0  0
  -12.8849  -22.6189   15.2889 C   0  0  0  0  0  0  0  0  0  0  0  0
  -11.6552  -22.4172   16.1494 C   0  0  0  0  0  0  0  0  0  0  0  0
  -11.2420  -23.7410   16.7624 C   0  0  0  0  0  0  0  0  0  0  0  0
  -12.3024  -24.2223   17.5862 O   0  0  0  0  0  0  0  0  0  0  0  0
  -13.7888  -24.3384   16.9603 P   0  0  0  0  0  0  0  0  0  0  0  0
  -14.8775  -24.6795   17.9243 O   0  0  0  0  0  0  0  0  0  0  0  0
  -13.9839  -22.9641   16.1174 O   0  0  0  0  0  0  0  0  0  0  0  0
  -13.5991  -25.4435   15.8075 O   0  0  0  0  0  0  0  0  0  0  0  0
  -10.6922  -21.8161   15.2889 O   0  0  0  0  0  0  0  0  0  0  0  0
  -11.4338  -20.9664   14.3653 C   0  0  0  0  0  0  0  0  0  0  0  0
  -10.9052  -21.2017   13.0342 N   0  0  0  0  0  0  0  0  0  0  0  0
  -10.7814  -22.4114   12.4013 C   0  0  0  0  0  0  0  0  0  0  0  0
  -10.2640  -22.2918   11.1953 N   0  0  0  0  0  0  0  0  0  0  0  0
  -10.0274  -20.9476   11.0424 C   0  0  0  0  0  0  0  0  0  0  0  0
  -10.4203  -20.2487   12.1733 C   0  0  0  0  0  0  0  0  0  0  0  0
  -10.3338  -18.9216   12.3641 N   0  0  0  0  0  0  0  0  0  0  0  0
   -9.8057  -18.2730   11.3024 C   0  0  0  0  0  0  0  0  0  0  0  0
   -9.3808  -18.8370   10.1545 N   0  0  0  0  0  0  0  0  0  0  0  0
   -9.4895  -20.1691   10.0244 C   0  0  0  0  0  0  0  0  0  0  0  0
   -9.0330  -20.6622    8.8349 O   0  0  0  0  0  0  0  0  0  0  0  0
   -9.7222  -16.8901   11.4793 N   0  0  0  0  0  0  0  0  0  0  0  0
   -8.5796  -16.1798   11.7761 C   0  0  0  0  0  0  0  0  0  0  0  0
   -7.4445  -16.6221   11.9131 O   0  0  0  0  0  0  0  0  0  0  0  0
   -8.8524  -14.7024   11.8973 C   0  0  0  0  0  0  0  0  0  0  0  0
  1  2  1  0
  2  3  1  0
  3  4  1  0
  4  5  2  0
  4  6  1  0
  6  7  1  0
  7  8  1  0
  7 17  1  0
  8  9  1  0
  8 14  1  0
  9 10  1  0
  9 16  1  0
 10 11  1  0
 11 12  1  0
 12 13  2  0
 12 14  1  0
 12 15  1  0
 16 17  1  0
 17 18  1  0
 18 19  1  0
 18 22  1  0
 19 20  2  0
 20 21  1  0
 21 22  2  0
 21 26  1  0
 22 23  1  0
 23 24  2  0
 24 25  1  0
 24 28  1  0
 25 26  2  0
 26 27  1  0
 28 29  1  0
 29 30  2  0
 29 31  1  0
M  END
>  <Gold.Gold.Protein.RotatedWaterAtoms>  (608) 


>  <Gold.Id.Protein>  (608) 


>  <Gold.PLP.Chemscore.CHOScore>  (608) 
0.0000

>  <Gold.PLP.Chemscore.Hbond>  (608) 
1.2080

>  <Gold.PLP.Chemscore.Internal.Correction>  (608) 
0.1232

>  <Gold.PLP.Chemscore.Metal>  (608) 
0.0000

>  <Gold.PLP.Fitness>  (608) 
47.7145

>  <Gold.PLP.PLP>  (608) 
-46.0218

>  <Gold.PLP.ligand.clash>  (608) 
0.0000

>  <Gold.PLP.ligand.torsion>  (608) 
1.0272

>  <Gold.PLP.part.buried>  (608) 
-2.2958

>  <Gold.PLP.part.hbond>  (608) 
-4.0214

>  <Gold.PLP.part.metal>  (608) 
0.0000

>  <Gold.PLP.part.nonpolar>  (608) 
-41.4699

>  <Gold.PLP.part.repulsive>  (608) 
0.9524

>  <Gold.Protein.RotatedAtoms>  (608) 


>  <Gold.Protein.RotatedTorsions>  (608) 


>  <Gold.Protein.RotatedWaterAtoms>  (608) 


>  <Gold.Version>  (608) 
5.3.0

>  <PLP.Chemscore.CHOScore>  (608) 


>  <PLP.Chemscore.Hbond>  (608) 


>  <PLP.Chemscore.Internal.Correction>  (608) 


>  <PLP.Chemscore.Metal>  (608) 


>  <PLP.Fitness>  (608) 


>  <PLP.PLP>  (608) 


>  <PLP.ligand.clash>  (608) 


>  <PLP.ligand.torsion>  (608) 


>  <PLP.part.buried>  (608) 


>  <PLP.part.hbond>  (608) 


>  <PLP.part.metal>  (608) 


>  <PLP.part.nonpolar>  (608) 


>  <PLP.part.repulsive>  (608) 


>  <RMSD>  (608) 
0.291955871297

>  <Torsion>  (608) 
171.923704933

>  <TorsionO>  (608) 
6.03609353985

>  <TorsionR>  (608) 
177.959798473

>  <Version>  (608) 


>  <product>  (608) 
17|Compound_8|Compounds_3D_F|sdf|4|dock7|1

>  <rmsd>  (608) 
-1

$$$$
193|32168_281|Aromatic_primary_amines_F|sdf|39|dock6|1
     RDKit          3D

 23 25  0  0  0  0  0  0  0  0999 V2000
   -7.8439  -12.1461   11.8919 C   0  0  0  0  0  0  0  0  0  0  0  0
   -8.5691  -13.4472   11.6781 C   0  0  0  0  0  0  0  0  0  0  0  0
   -9.7886  -13.4981   11.5208 O   0  0  0  0  0  0  0  0  0  0  0  0
   -7.7264  -14.5390   11.7020 N   0  0  0  0  0  0  0  0  0  0  0  0
   -8.1889  -15.8197   11.5323 C   0  0  0  0  0  0  0  0  0  0  0  0
   -9.4747  -16.2039   11.8163 N   0  0  0  0  0  0  0  0  0  0  0  0
   -9.5964  -17.5375   11.5379 C   0  0  0  0  0  0  0  0  0  0  0  0
  -10.6643  -18.4283   11.6415 C   0  0  0  0  0  0  0  0  0  0  0  0
  -10.4051  -19.7586   11.2778 C   0  0  0  0  0  0  0  0  0  0  0  0
   -9.1530  -20.1507   10.7795 C   0  0  0  0  0  0  0  0  0  0  0  0
   -8.1017  -19.2294   10.6839 C   0  0  0  0  0  0  0  0  0  0  0  0
   -8.3349  -17.9032   11.0783 C   0  0  0  0  0  0  0  0  0  0  0  0
   -7.4773  -16.8281   11.0838 N   0  0  0  0  0  0  0  0  0  0  0  0
   -8.8530  -21.7658   10.2429 Cl  0  0  0  0  0  0  0  0  0  0  0  0
  -11.4669  -20.6323   11.3734 O   0  0  0  0  0  0  0  0  0  0  0  0
  -12.5262  -20.4408   10.5053 C   0  0  0  0  0  0  0  0  0  0  0  0
  -13.3188  -19.2846   10.5304 C   0  0  0  0  0  0  0  0  0  0  0  0
  -14.3665  -19.1344    9.6224 C   0  0  0  0  0  0  0  0  0  0  0  0
  -14.6219  -20.1279    8.6796 C   0  0  0  0  0  0  0  0  0  0  0  0
  -13.8238  -21.2756    8.6345 C   0  0  0  0  0  0  0  0  0  0  0  0
  -12.7674  -21.4342    9.5416 C   0  0  0  0  0  0  0  0  0  0  0  0
  -11.7588  -22.8458    9.4996 Cl  0  0  0  0  0  0  0  0  0  0  0  0
  -14.1988  -22.4584    7.4296 Cl  0  0  0  0  0  0  0  0  0  0  0  0
  1  2  1  0
  2  3  2  0
  2  4  1  0
  4  5  1  0
  5  6  1  0
  5 13  2  0
  6  7  1  0
  7  8  2  0
  7 12  1  0
  8  9  1  0
  9 10  2  0
  9 15  1  0
 10 11  1  0
 10 14  1  0
 11 12  2  0
 12 13  1  0
 15 16  1  0
 16 17  2  0
 16 21  1  0
 17 18  1  0
 18 19  2  0
 19 20  1  0
 20 21  2  0
 20 23  1  0
 21 22  1  0
M  END
>  <Gold.Gold.Protein.RotatedWaterAtoms>  (609) 


>  <Gold.Id.Protein>  (609) 


>  <Gold.PLP.Chemscore.CHOScore>  (609) 
0.0000

>  <Gold.PLP.Chemscore.Hbond>  (609) 
1.0000

>  <Gold.PLP.Chemscore.Internal.Correction>  (609) 
0.0086

>  <Gold.PLP.Chemscore.Metal>  (609) 
0.0000

>  <Gold.PLP.Fitness>  (609) 
50.7139

>  <Gold.PLP.PLP>  (609) 
-48.1706

>  <Gold.PLP.ligand.clash>  (609) 
0.0000

>  <Gold.PLP.ligand.torsion>  (609) 
0.2327

>  <Gold.PLP.part.buried>  (609) 
-6.5205

>  <Gold.PLP.part.hbond>  (609) 
-2.0000

>  <Gold.PLP.part.metal>  (609) 
0.0000

>  <Gold.PLP.part.nonpolar>  (609) 
-39.3857

>  <Gold.PLP.part.repulsive>  (609) 
0.3298

>  <Gold.Protein.RotatedAtoms>  (609) 


>  <Gold.Protein.RotatedTorsions>  (609) 


>  <Gold.Protein.RotatedWaterAtoms>  (609) 


>  <Gold.Version>  (609) 
5.3.0

>  <PLP.Chemscore.CHOScore>  (609) 


>  <PLP.Chemscore.Hbond>  (609) 


>  <PLP.Chemscore.Internal.Correction>  (609) 


>  <PLP.Chemscore.Metal>  (609) 


>  <PLP.Fitness>  (609) 


>  <PLP.PLP>  (609) 


>  <PLP.ligand.clash>  (609) 


>  <PLP.ligand.torsion>  (609) 


>  <PLP.part.buried>  (609) 


>  <PLP.part.hbond>  (609) 


>  <PLP.part.metal>  (609) 


>  <PLP.part.nonpolar>  (609) 


>  <PLP.part.repulsive>  (609) 


>  <RMSD>  (609) 
0.439733510035

>  <Torsion>  (609) 
177.672185574

>  <TorsionO>  (609) 
4.31728583372

>  <TorsionR>  (609) 
173.35489974

>  <Version>  (609) 


>  <product>  (609) 
17|Compound_8|Compounds_3D_F|sdf|4|dock7|1

>  <rmsd>  (609) 
-1

$$$$
77|Compound_31|Compounds_3D_F|sdf|13|dock3|1
     RDKit          3D

 10  9  0  0  0  0  0  0  0  0999 V2000
   -6.6018  -11.4987   12.1609 O   0  0  0  0  0  0  0  0  0  0  0  0
   -6.9543  -12.7795   12.3482 C   0  0  0  0  0  0  0  0  0  0  0  0
   -8.1223  -13.0800   12.4303 O   0  0  0  0  0  0  0  0  0  0  0  0
   -5.8938  -13.8449   12.4573 C   0  0  0  0  0  0  0  0  0  0  0  0
   -4.6031  -13.2502   12.3106 O   0  0  0  0  0  0  0  0  0  0  0  0
   -6.1029  -14.8872   11.3566 C   0  0  0  0  0  0  0  0  0  0  0  0
   -4.8240  -15.5314   11.0447 N   0  0  0  0  0  0  0  0  0  0  0  0
   -4.6090  -16.8123   11.4037 C   0  0  0  0  0  0  0  0  0  0  0  0
   -5.4743  -17.4314   11.9854 O   0  0  0  0  0  0  0  0  0  0  0  0
   -3.2394  -17.5021   11.0688 B   0  0  0  0  0  0  0  0  0  0  0  0
  1  2  1  0
  2  3  2  0
  2  4  1  0
  4  5  1  0
  4  6  1  0
  6  7  1  0
  7  8  1  0
  8  9  2  0
  8 10  1  0
M  END
>  <Gold.Gold.Protein.RotatedWaterAtoms>  (610) 


>  <Gold.Id.Protein>  (610) 


>  <Gold.PLP.Chemscore.CHOScore>  (610) 
0.0000

>  <Gold.PLP.Chemscore.Hbond>  (610) 
2.0000

>  <Gold.PLP.Chemscore.Internal.Correction>  (610) 
0.0009

>  <Gold.PLP.Chemscore.Metal>  (610) 
0.0000

>  <Gold.PLP.Fitness>  (610) 
29.7450

>  <Gold.PLP.PLP>  (610) 
-24.4568

>  <Gold.PLP.ligand.clash>  (610) 
0.0000

>  <Gold.PLP.ligand.torsion>  (610) 
0.3564

>  <Gold.PLP.part.buried>  (610) 
-6.8264

>  <Gold.PLP.part.hbond>  (610) 
-3.0000

>  <Gold.PLP.part.metal>  (610) 
0.0000

>  <Gold.PLP.part.nonpolar>  (610) 
-15.1758

>  <Gold.PLP.part.repulsive>  (610) 
0.2321

>  <Gold.Protein.RotatedAtoms>  (610) 


>  <Gold.Protein.RotatedTorsions>  (610) 


>  <Gold.Protein.RotatedWaterAtoms>  (610) 


>  <Gold.Version>  (610) 
5.3.0

>  <PLP.Chemscore.CHOScore>  (610) 


>  <PLP.Chemscore.Hbond>  (610) 


>  <PLP.Chemscore.Internal.Correction>  (610) 


>  <PLP.Chemscore.Metal>  (610) 


>  <PLP.Fitness>  (610) 


>  <PLP.PLP>  (610) 


>  <PLP.ligand.clash>  (610) 


>  <PLP.ligand.torsion>  (610) 


>  <PLP.part.buried>  (610) 


>  <PLP.part.hbond>  (610) 


>  <PLP.part.metal>  (610) 


>  <PLP.part.nonpolar>  (610) 


>  <PLP.part.repulsive>  (610) 


>  <Version>  (610) 


$$$$
94|664022_40|Aromatic_carboxylic_acids_F|sdf|24|dock1|1
     RDKit          3D

 12 12  0  0  0  0  0  0  0  0999 V2000
   -8.2596  -17.1212   11.4595 C   0  0  0  0  0  0  0  0  0  0  0  0
   -7.6366  -15.8367   11.6688 N   0  0  0  0  0  0  0  0  0  0  0  0
   -8.3409  -14.6553   11.5719 C   0  0  0  0  0  0  0  0  0  0  0  0
   -9.5296  -14.5547   11.2978 O   0  0  0  0  0  0  0  0  0  0  0  0
   -7.5420  -13.4431   11.8503 C   0  0  0  0  0  0  0  0  0  0  0  0
   -8.1627  -12.1983   11.6738 C   0  0  0  0  0  0  0  0  0  0  0  0
   -7.4390  -11.0301   11.9055 C   0  0  0  0  0  0  0  0  0  0  0  0
   -6.1069  -11.0910   12.3103 C   0  0  0  0  0  0  0  0  0  0  0  0
   -5.4897  -12.3324   12.4853 C   0  0  0  0  0  0  0  0  0  0  0  0
   -6.2035  -13.5136   12.2549 C   0  0  0  0  0  0  0  0  0  0  0  0
   -5.3062  -15.1564   12.5638 Br  0  0  0  0  0  0  0  0  0  0  0  0
   -8.1960   -9.5005   11.6887 Cl  0  0  0  0  0  0  0  0  0  0  0  0
  1  2  1  0
  2  3  1  0
  3  4  2  0
  3  5  1  0
  5  6  2  0
  5 10  1  0
  6  7  1  0
  7  8  2  0
  7 12  1  0
  8  9  1  0
  9 10  2  0
 10 11  1  0
M  END
>  <Gold.Gold.Protein.RotatedWaterAtoms>  (611) 


>  <Gold.Id.Protein>  (611) 


>  <Gold.PLP.Chemscore.CHOScore>  (611) 
0.0000

>  <Gold.PLP.Chemscore.Hbond>  (611) 
0.4160

>  <Gold.PLP.Chemscore.Internal.Correction>  (611) 
0.0004

>  <Gold.PLP.Chemscore.Metal>  (611) 
0.0000

>  <Gold.PLP.Fitness>  (611) 
48.9046

>  <Gold.PLP.PLP>  (611) 
-47.6744

>  <Gold.PLP.ligand.clash>  (611) 
0.0000

>  <Gold.PLP.ligand.torsion>  (611) 
0.0091

>  <Gold.PLP.part.buried>  (611) 
-7.3578

>  <Gold.PLP.part.hbond>  (611) 
-0.5127

>  <Gold.PLP.part.metal>  (611) 
0.0000

>  <Gold.PLP.part.nonpolar>  (611) 
-40.3098

>  <Gold.PLP.part.repulsive>  (611) 
0.1684

>  <Gold.Protein.RotatedAtoms>  (611) 


>  <Gold.Protein.RotatedTorsions>  (611) 


>  <Gold.Protein.RotatedWaterAtoms>  (611) 


>  <Gold.Version>  (611) 
5.3.0

>  <PLP.Chemscore.CHOScore>  (611) 


>  <PLP.Chemscore.Hbond>  (611) 


>  <PLP.Chemscore.Internal.Correction>  (611) 


>  <PLP.Chemscore.Metal>  (611) 


>  <PLP.Fitness>  (611) 


>  <PLP.PLP>  (611) 


>  <PLP.ligand.clash>  (611) 


>  <PLP.ligand.torsion>  (611) 


>  <PLP.part.buried>  (611) 


>  <PLP.part.hbond>  (611) 


>  <PLP.part.metal>  (611) 


>  <PLP.part.nonpolar>  (611) 


>  <PLP.part.repulsive>  (611) 


>  <RMSD>  (611) 
0.30972197429

>  <Torsion>  (611) 
172.929186758

>  <TorsionO>  (611) 
24.4968065243

>  <TorsionR>  (611) 
162.574006718

>  <Version>  (611) 


>  <product>  (611) 
77|Compound_31|Compounds_3D_F|sdf|13|dock3|1

>  <rmsd>  (611) 
-1

$$$$
110|565385_49|Aromatic_carboxylic_acids_F|sdf|29|dock1|1
     RDKit          3D

 13 13  0  0  0  0  0  0  0  0999 V2000
  -10.1118  -17.9021   11.6320 C   0  0  0  0  0  0  0  0  0  0  0  0
   -9.7537  -16.5043   11.6546 N   0  0  0  0  0  0  0  0  0  0  0  0
   -8.4330  -16.1187   11.7930 C   0  0  0  0  0  0  0  0  0  0  0  0
   -7.5159  -16.9298   11.9008 O   0  0  0  0  0  0  0  0  0  0  0  0
   -8.1234  -14.6552   11.8105 C   0  0  0  0  0  0  0  0  0  0  0  0
   -9.0636  -13.6551   11.5375 C   0  0  0  0  0  0  0  0  0  0  0  0
   -8.6966  -12.3009   11.5726 C   0  0  0  0  0  0  0  0  0  0  0  0
   -7.3879  -11.9195   11.8809 C   0  0  0  0  0  0  0  0  0  0  0  0
   -6.4486  -12.9235   12.1551 C   0  0  0  0  0  0  0  0  0  0  0  0
   -6.8098  -14.2750   12.1207 C   0  0  0  0  0  0  0  0  0  0  0  0
   -4.6444  -12.5025   12.5849 Br  0  0  0  0  0  0  0  0  0  0  0  0
   -6.9476  -10.6242   11.9372 O   0  0  0  0  0  0  0  0  0  0  0  0
   -7.9020   -9.5910   11.7256 C   0  0  0  0  0  0  0  0  0  0  0  0
  1  2  1  0
  2  3  1  0
  3  4  2  0
  3  5  1  0
  5  6  2  0
  5 10  1  0
  6  7  1  0
  7  8  2  0
  8  9  1  0
  8 12  1  0
  9 10  2  0
  9 11  1  0
 12 13  1  0
M  END
>  <Gold.Gold.Protein.RotatedWaterAtoms>  (612) 


>  <Gold.Id.Protein>  (612) 


>  <Gold.PLP.Chemscore.CHOScore>  (612) 
0.0000

>  <Gold.PLP.Chemscore.Hbond>  (612) 
1.0000

>  <Gold.PLP.Chemscore.Internal.Correction>  (612) 
0.0000

>  <Gold.PLP.Chemscore.Metal>  (612) 
0.0000

>  <Gold.PLP.Fitness>  (612) 
43.9775

>  <Gold.PLP.PLP>  (612) 
-41.0517

>  <Gold.PLP.ligand.clash>  (612) 
0.0000

>  <Gold.PLP.ligand.torsion>  (612) 
0.0371

>  <Gold.PLP.part.buried>  (612) 
-3.7367

>  <Gold.PLP.part.hbond>  (612) 
-1.0000

>  <Gold.PLP.part.metal>  (612) 
0.0000

>  <Gold.PLP.part.nonpolar>  (612) 
-36.7483

>  <Gold.PLP.part.repulsive>  (612) 
0.4054

>  <Gold.Protein.RotatedAtoms>  (612) 


>  <Gold.Protein.RotatedTorsions>  (612) 


>  <Gold.Protein.RotatedWaterAtoms>  (612) 


>  <Gold.Version>  (612) 
5.3.0

>  <PLP.Chemscore.CHOScore>  (612) 


>  <PLP.Chemscore.Hbond>  (612) 


>  <PLP.Chemscore.Internal.Correction>  (612) 


>  <PLP.Chemscore.Metal>  (612) 


>  <PLP.Fitness>  (612) 


>  <PLP.PLP>  (612) 


>  <PLP.ligand.clash>  (612) 


>  <PLP.ligand.torsion>  (612) 


>  <PLP.part.buried>  (612) 


>  <PLP.part.hbond>  (612) 


>  <PLP.part.metal>  (612) 


>  <PLP.part.nonpolar>  (612) 


>  <PLP.part.repulsive>  (612) 


>  <RMSD>  (612) 
0.319376411377

>  <Torsion>  (612) 
169.460450784

>  <TorsionO>  (612) 
9.7963905484

>  <TorsionR>  (612) 
179.256841332

>  <Version>  (612) 


>  <product>  (612) 
77|Compound_31|Compounds_3D_F|sdf|13|dock3|1

>  <rmsd>  (612) 
-1

$$$$
128|137677_56|Aromatic_carboxylic_acids_F|sdf|33|dock1|1
     RDKit          3D

 11 11  0  0  0  0  0  0  0  0999 V2000
   -8.6116  -16.1544   11.8887 C   0  0  0  0  0  0  0  0  0  0  0  0
   -7.9978  -14.8484   11.9215 N   0  0  0  0  0  0  0  0  0  0  0  0
   -8.7778  -13.7008   11.8756 C   0  0  0  0  0  0  0  0  0  0  0  0
  -10.0002  -13.7896   11.8139 O   0  0  0  0  0  0  0  0  0  0  0  0
   -8.0808  -12.3609   11.9017 C   0  0  0  0  0  0  0  0  0  0  0  0
   -8.7916  -11.1851   11.5813 C   0  0  0  0  0  0  0  0  0  0  0  0
   -8.1781   -9.9267   11.5989 C   0  0  0  0  0  0  0  0  0  0  0  0
   -6.8391   -9.8089   11.9369 C   0  0  0  0  0  0  0  0  0  0  0  0
   -6.1124  -10.9502   12.2575 C   0  0  0  0  0  0  0  0  0  0  0  0
   -6.7171  -12.2196   12.2428 C   0  0  0  0  0  0  0  0  0  0  0  0
   -5.5419  -13.6455   12.7121 Br  0  0  0  0  0  0  0  0  0  0  0  0
  1  2  1  0
  2  3  1  0
  3  4  2  0
  3  5  1  0
  5  6  2  0
  5 10  1  0
  6  7  1  0
  7  8  2  0
  8  9  1  0
  9 10  2  0
 10 11  1  0
M  END
>  <Gold.Gold.Protein.RotatedWaterAtoms>  (613) 


>  <Gold.Id.Protein>  (613) 


>  <Gold.PLP.Chemscore.CHOScore>  (613) 
0.0000

>  <Gold.PLP.Chemscore.Hbond>  (613) 
1.0000

>  <Gold.PLP.Chemscore.Internal.Correction>  (613) 
0.0000

>  <Gold.PLP.Chemscore.Metal>  (613) 
0.0000

>  <Gold.PLP.Fitness>  (613) 
45.2899

>  <Gold.PLP.PLP>  (613) 
-42.4444

>  <Gold.PLP.ligand.clash>  (613) 
0.0000

>  <Gold.PLP.ligand.torsion>  (613) 
0.0772

>  <Gold.PLP.part.buried>  (613) 
-6.4690

>  <Gold.PLP.part.hbond>  (613) 
-0.6863

>  <Gold.PLP.part.metal>  (613) 
0.0000

>  <Gold.PLP.part.nonpolar>  (613) 
-34.8280

>  <Gold.PLP.part.repulsive>  (613) 
0.1963

>  <Gold.Protein.RotatedAtoms>  (613) 


>  <Gold.Protein.RotatedTorsions>  (613) 


>  <Gold.Protein.RotatedWaterAtoms>  (613) 


>  <Gold.Version>  (613) 
5.3.0

>  <PLP.Chemscore.CHOScore>  (613) 


>  <PLP.Chemscore.Hbond>  (613) 


>  <PLP.Chemscore.Internal.Correction>  (613) 


>  <PLP.Chemscore.Metal>  (613) 


>  <PLP.Fitness>  (613) 


>  <PLP.PLP>  (613) 


>  <PLP.ligand.clash>  (613) 


>  <PLP.ligand.torsion>  (613) 


>  <PLP.part.buried>  (613) 


>  <PLP.part.hbond>  (613) 


>  <PLP.part.metal>  (613) 


>  <PLP.part.nonpolar>  (613) 


>  <PLP.part.repulsive>  (613) 


>  <RMSD>  (613) 
0.428070490903

>  <Torsion>  (613) 
152.444048788

>  <TorsionO>  (613) 
39.0580871276

>  <TorsionR>  (613) 
168.497864085

>  <Version>  (613) 


>  <product>  (613) 
77|Compound_31|Compounds_3D_F|sdf|13|dock3|1

>  <rmsd>  (613) 
-1

$$$$
974|750794_1404|Aromatic_primary_amines_F|sdf|194|dock3|1
     RDKit          3D

 14 14  0  0  0  0  0  0  0  0999 V2000
  -13.6355  -18.1936    9.4145 C   0  0  0  0  0  0  0  0  0  0  0  0
  -13.2544  -19.4497   10.1732 C   0  0  0  0  0  0  0  0  0  0  0  0
  -11.8731  -19.3506   10.5383 O   0  0  0  0  0  0  0  0  0  0  0  0
  -11.6148  -18.5085   11.5823 C   0  0  0  0  0  0  0  0  0  0  0  0
  -12.3947  -18.2810   12.5004 O   0  0  0  0  0  0  0  0  0  0  0  0
  -10.3031  -17.8985   11.4902 C   0  0  0  0  0  0  0  0  0  0  0  0
   -9.1673  -18.4974   10.9931 C   0  0  0  0  0  0  0  0  0  0  0  0
   -8.1448  -17.6055   11.0758 O   0  0  0  0  0  0  0  0  0  0  0  0
   -8.7110  -16.4917   11.6237 C   0  0  0  0  0  0  0  0  0  0  0  0
   -9.9933  -16.6110   11.8915 N   0  0  0  0  0  0  0  0  0  0  0  0
   -7.9611  -15.3718   11.8549 N   0  0  0  0  0  0  0  0  0  0  0  0
   -8.5046  -14.1249   12.0676 C   0  0  0  0  0  0  0  0  0  0  0  0
   -9.6950  -13.8313   12.1035 O   0  0  0  0  0  0  0  0  0  0  0  0
   -7.4448  -13.0785   12.3021 C   0  0  0  0  0  0  0  0  0  0  0  0
  1  2  1  0
  2  3  1  0
  3  4  1  0
  4  5  2  0
  4  6  1  0
  6  7  2  0
  6 10  1  0
  7  8  1  0
  8  9  1  0
  9 10  2  0
  9 11  1  0
 11 12  1  0
 12 13  2  0
 12 14  1  0
M  END
>  <Gold.Gold.Protein.RotatedWaterAtoms>  (614) 


>  <Gold.Id.Protein>  (614) 


>  <Gold.PLP.Chemscore.CHOScore>  (614) 
0.0000

>  <Gold.PLP.Chemscore.Hbond>  (614) 
2.0000

>  <Gold.PLP.Chemscore.Internal.Correction>  (614) 
0.0053

>  <Gold.PLP.Chemscore.Metal>  (614) 
0.0000

>  <Gold.PLP.Fitness>  (614) 
36.8047

>  <Gold.PLP.PLP>  (614) 
-32.7996

>  <Gold.PLP.ligand.clash>  (614) 
0.0000

>  <Gold.PLP.ligand.torsion>  (614) 
1.0001

>  <Gold.PLP.part.buried>  (614) 
-6.5206

>  <Gold.PLP.part.hbond>  (614) 
-2.9156

>  <Gold.PLP.part.metal>  (614) 
0.0000

>  <Gold.PLP.part.nonpolar>  (614) 
-23.4080

>  <Gold.PLP.part.repulsive>  (614) 
0.3100

>  <Gold.Protein.RotatedAtoms>  (614) 


>  <Gold.Protein.RotatedTorsions>  (614) 


>  <Gold.Protein.RotatedWaterAtoms>  (614) 


>  <Gold.Version>  (614) 
5.3.0

>  <PLP.Chemscore.CHOScore>  (614) 


>  <PLP.Chemscore.Hbond>  (614) 


>  <PLP.Chemscore.Internal.Correction>  (614) 


>  <PLP.Chemscore.Metal>  (614) 


>  <PLP.Fitness>  (614) 


>  <PLP.PLP>  (614) 


>  <PLP.ligand.clash>  (614) 


>  <PLP.ligand.torsion>  (614) 


>  <PLP.part.buried>  (614) 


>  <PLP.part.hbond>  (614) 


>  <PLP.part.metal>  (614) 


>  <PLP.part.nonpolar>  (614) 


>  <PLP.part.repulsive>  (614) 


>  <RMSD>  (614) 
0.499949349045

>  <Torsion>  (614) 
159.973716791

>  <TorsionO>  (614) 
19.1052109979

>  <TorsionR>  (614) 
179.078927789

>  <Version>  (614) 


>  <product>  (614) 
77|Compound_31|Compounds_3D_F|sdf|13|dock3|1

>  <rmsd>  (614) 
-1

$$$$
1884|M3006_1781|Aromatic_primary_amines_F|sdf|361|dock3|1
     RDKit          3D

 31 34  0  0  0  0  0  0  0  0999 V2000
  -14.4210  -19.8971    8.7934 C   0  0  0  0  0  0  0  0  0  0  0  0
  -13.9762  -19.4927   10.1894 C   0  0  0  0  0  0  0  0  0  0  0  0
  -14.1356  -20.6409   11.1817 C   0  0  0  0  0  0  0  0  0  0  0  0
  -13.5197  -20.3070   12.5189 C   0  0  0  0  0  0  0  0  0  0  0  0
  -12.9307  -19.2724   12.7954 O   0  0  0  0  0  0  0  0  0  0  0  0
  -13.7110  -21.3451   13.3845 O   0  0  0  0  0  0  0  0  0  0  0  0
  -12.9425  -21.2698   14.5900 C   0  0  0  0  0  0  0  0  0  0  0  0
  -12.8849  -22.6189   15.2889 C   0  0  0  0  0  0  0  0  0  0  0  0
  -11.6552  -22.4172   16.1494 C   0  0  0  0  0  0  0  0  0  0  0  0
  -11.2420  -23.7410   16.7624 C   0  0  0  0  0  0  0  0  0  0  0  0
  -12.3024  -24.2223   17.5862 O   0  0  0  0  0  0  0  0  0  0  0  0
  -13.7888  -24.3384   16.9603 P   0  0  0  0  0  0  0  0  0  0  0  0
  -14.8775  -24.6795   17.9243 O   0  0  0  0  0  0  0  0  0  0  0  0
  -13.9839  -22.9641   16.1174 O   0  0  0  0  0  0  0  0  0  0  0  0
  -13.5991  -25.4435   15.8075 O   0  0  0  0  0  0  0  0  0  0  0  0
  -10.6922  -21.8161   15.2889 O   0  0  0  0  0  0  0  0  0  0  0  0
  -11.4338  -20.9664   14.3653 C   0  0  0  0  0  0  0  0  0  0  0  0
  -10.9052  -21.2017   13.0342 N   0  0  0  0  0  0  0  0  0  0  0  0
  -10.7814  -22.4114   12.4013 C   0  0  0  0  0  0  0  0  0  0  0  0
  -10.2640  -22.2918   11.1953 N   0  0  0  0  0  0  0  0  0  0  0  0
  -10.0274  -20.9476   11.0424 C   0  0  0  0  0  0  0  0  0  0  0  0
  -10.4203  -20.2487   12.1733 C   0  0  0  0  0  0  0  0  0  0  0  0
  -10.3338  -18.9216   12.3641 N   0  0  0  0  0  0  0  0  0  0  0  0
   -9.8057  -18.2730   11.3024 C   0  0  0  0  0  0  0  0  0  0  0  0
   -9.3808  -18.8370   10.1545 N   0  0  0  0  0  0  0  0  0  0  0  0
   -9.4895  -20.1691   10.0244 C   0  0  0  0  0  0  0  0  0  0  0  0
   -9.0330  -20.6622    8.8349 O   0  0  0  0  0  0  0  0  0  0  0  0
   -9.7222  -16.8901   11.4793 N   0  0  0  0  0  0  0  0  0  0  0  0
   -8.5796  -16.1798   11.7761 C   0  0  0  0  0  0  0  0  0  0  0  0
   -7.4445  -16.6221   11.9131 O   0  0  0  0  0  0  0  0  0  0  0  0
   -8.8524  -14.7024   11.8973 C   0  0  0  0  0  0  0  0  0  0  0  0
  1  2  1  0
  2  3  1  0
  3  4  1  0
  4  5  2  0
  4  6  1  0
  6  7  1  0
  7  8  1  0
  7 17  1  0
  8  9  1  0
  8 14  1  0
  9 10  1  0
  9 16  1  0
 10 11  1  0
 11 12  1  0
 12 13  2  0
 12 14  1  0
 12 15  1  0
 16 17  1  0
 17 18  1  0
 18 19  1  0
 18 22  1  0
 19 20  2  0
 20 21  1  0
 21 22  2  0
 21 26  1  0
 22 23  1  0
 23 24  2  0
 24 25  1  0
 24 28  1  0
 25 26  2  0
 26 27  1  0
 28 29  1  0
 29 30  2  0
 29 31  1  0
M  END
>  <Gold.Gold.Protein.RotatedWaterAtoms>  (615) 


>  <Gold.Id.Protein>  (615) 


>  <Gold.PLP.Chemscore.CHOScore>  (615) 
0.0000

>  <Gold.PLP.Chemscore.Hbond>  (615) 
1.2080

>  <Gold.PLP.Chemscore.Internal.Correction>  (615) 
0.1232

>  <Gold.PLP.Chemscore.Metal>  (615) 
0.0000

>  <Gold.PLP.Fitness>  (615) 
47.7145

>  <Gold.PLP.PLP>  (615) 
-46.0218

>  <Gold.PLP.ligand.clash>  (615) 
0.0000

>  <Gold.PLP.ligand.torsion>  (615) 
1.0272

>  <Gold.PLP.part.buried>  (615) 
-2.2958

>  <Gold.PLP.part.hbond>  (615) 
-4.0214

>  <Gold.PLP.part.metal>  (615) 
0.0000

>  <Gold.PLP.part.nonpolar>  (615) 
-41.4699

>  <Gold.PLP.part.repulsive>  (615) 
0.9524

>  <Gold.Protein.RotatedAtoms>  (615) 


>  <Gold.Protein.RotatedTorsions>  (615) 


>  <Gold.Protein.RotatedWaterAtoms>  (615) 


>  <Gold.Version>  (615) 
5.3.0

>  <PLP.Chemscore.CHOScore>  (615) 


>  <PLP.Chemscore.Hbond>  (615) 


>  <PLP.Chemscore.Internal.Correction>  (615) 


>  <PLP.Chemscore.Metal>  (615) 


>  <PLP.Fitness>  (615) 


>  <PLP.PLP>  (615) 


>  <PLP.ligand.clash>  (615) 


>  <PLP.ligand.torsion>  (615) 


>  <PLP.part.buried>  (615) 


>  <PLP.part.hbond>  (615) 


>  <PLP.part.metal>  (615) 


>  <PLP.part.nonpolar>  (615) 


>  <PLP.part.repulsive>  (615) 


>  <RMSD>  (615) 
0.291955871297

>  <Torsion>  (615) 
171.923704933

>  <TorsionO>  (615) 
6.03609353985

>  <TorsionR>  (615) 
177.959798473

>  <Version>  (615) 


>  <product>  (615) 
77|Compound_31|Compounds_3D_F|sdf|13|dock3|1

>  <rmsd>  (615) 
-1

$$$$
193|32168_281|Aromatic_primary_amines_F|sdf|39|dock6|1
     RDKit          3D

 23 25  0  0  0  0  0  0  0  0999 V2000
   -7.8439  -12.1461   11.8919 C   0  0  0  0  0  0  0  0  0  0  0  0
   -8.5691  -13.4472   11.6781 C   0  0  0  0  0  0  0  0  0  0  0  0
   -9.7886  -13.4981   11.5208 O   0  0  0  0  0  0  0  0  0  0  0  0
   -7.7264  -14.5390   11.7020 N   0  0  0  0  0  0  0  0  0  0  0  0
   -8.1889  -15.8197   11.5323 C   0  0  0  0  0  0  0  0  0  0  0  0
   -9.4747  -16.2039   11.8163 N   0  0  0  0  0  0  0  0  0  0  0  0
   -9.5964  -17.5375   11.5379 C   0  0  0  0  0  0  0  0  0  0  0  0
  -10.6643  -18.4283   11.6415 C   0  0  0  0  0  0  0  0  0  0  0  0
  -10.4051  -19.7586   11.2778 C   0  0  0  0  0  0  0  0  0  0  0  0
   -9.1530  -20.1507   10.7795 C   0  0  0  0  0  0  0  0  0  0  0  0
   -8.1017  -19.2294   10.6839 C   0  0  0  0  0  0  0  0  0  0  0  0
   -8.3349  -17.9032   11.0783 C   0  0  0  0  0  0  0  0  0  0  0  0
   -7.4773  -16.8281   11.0838 N   0  0  0  0  0  0  0  0  0  0  0  0
   -8.8530  -21.7658   10.2429 Cl  0  0  0  0  0  0  0  0  0  0  0  0
  -11.4669  -20.6323   11.3734 O   0  0  0  0  0  0  0  0  0  0  0  0
  -12.5262  -20.4408   10.5053 C   0  0  0  0  0  0  0  0  0  0  0  0
  -13.3188  -19.2846   10.5304 C   0  0  0  0  0  0  0  0  0  0  0  0
  -14.3665  -19.1344    9.6224 C   0  0  0  0  0  0  0  0  0  0  0  0
  -14.6219  -20.1279    8.6796 C   0  0  0  0  0  0  0  0  0  0  0  0
  -13.8238  -21.2756    8.6345 C   0  0  0  0  0  0  0  0  0  0  0  0
  -12.7674  -21.4342    9.5416 C   0  0  0  0  0  0  0  0  0  0  0  0
  -11.7588  -22.8458    9.4996 Cl  0  0  0  0  0  0  0  0  0  0  0  0
  -14.1988  -22.4584    7.4296 Cl  0  0  0  0  0  0  0  0  0  0  0  0
  1  2  1  0
  2  3  2  0
  2  4  1  0
  4  5  1  0
  5  6  1  0
  5 13  2  0
  6  7  1  0
  7  8  2  0
  7 12  1  0
  8  9  1  0
  9 10  2  0
  9 15  1  0
 10 11  1  0
 10 14  1  0
 11 12  2  0
 12 13  1  0
 15 16  1  0
 16 17  2  0
 16 21  1  0
 17 18  1  0
 18 19  2  0
 19 20  1  0
 20 21  2  0
 20 23  1  0
 21 22  1  0
M  END
>  <Gold.Gold.Protein.RotatedWaterAtoms>  (616) 


>  <Gold.Id.Protein>  (616) 


>  <Gold.PLP.Chemscore.CHOScore>  (616) 
0.0000

>  <Gold.PLP.Chemscore.Hbond>  (616) 
1.0000

>  <Gold.PLP.Chemscore.Internal.Correction>  (616) 
0.0086

>  <Gold.PLP.Chemscore.Metal>  (616) 
0.0000

>  <Gold.PLP.Fitness>  (616) 
50.7139

>  <Gold.PLP.PLP>  (616) 
-48.1706

>  <Gold.PLP.ligand.clash>  (616) 
0.0000

>  <Gold.PLP.ligand.torsion>  (616) 
0.2327

>  <Gold.PLP.part.buried>  (616) 
-6.5205

>  <Gold.PLP.part.hbond>  (616) 
-2.0000

>  <Gold.PLP.part.metal>  (616) 
0.0000

>  <Gold.PLP.part.nonpolar>  (616) 
-39.3857

>  <Gold.PLP.part.repulsive>  (616) 
0.3298

>  <Gold.Protein.RotatedAtoms>  (616) 


>  <Gold.Protein.RotatedTorsions>  (616) 


>  <Gold.Protein.RotatedWaterAtoms>  (616) 


>  <Gold.Version>  (616) 
5.3.0

>  <PLP.Chemscore.CHOScore>  (616) 


>  <PLP.Chemscore.Hbond>  (616) 


>  <PLP.Chemscore.Internal.Correction>  (616) 


>  <PLP.Chemscore.Metal>  (616) 


>  <PLP.Fitness>  (616) 


>  <PLP.PLP>  (616) 


>  <PLP.ligand.clash>  (616) 


>  <PLP.ligand.torsion>  (616) 


>  <PLP.part.buried>  (616) 


>  <PLP.part.hbond>  (616) 


>  <PLP.part.metal>  (616) 


>  <PLP.part.nonpolar>  (616) 


>  <PLP.part.repulsive>  (616) 


>  <RMSD>  (616) 
0.439733510035

>  <Torsion>  (616) 
177.672185574

>  <TorsionO>  (616) 
4.31728583372

>  <TorsionR>  (616) 
173.35489974

>  <Version>  (616) 


>  <product>  (616) 
77|Compound_31|Compounds_3D_F|sdf|13|dock3|1

>  <rmsd>  (616) 
-1

$$$$
64|Compound_25|Compounds_3D_F|sdf|11|dock2|1
     RDKit          3D

 10  9  0  0  0  0  0  0  0  0999 V2000
   -4.6759  -12.4124   13.4000 O   0  0  0  0  0  0  0  0  0  0  0  0
   -5.6620  -12.4904   12.4939 C   0  0  0  0  0  0  0  0  0  0  0  0
   -6.0890  -11.4850   11.9760 O   0  0  0  0  0  0  0  0  0  0  0  0
   -6.2390  -13.8320   12.1214 C   0  0  0  0  0  0  0  0  0  0  0  0
   -6.1818  -13.9992   10.7028 O   0  0  0  0  0  0  0  0  0  0  0  0
   -5.4299  -14.9401   12.7988 C   0  0  0  0  0  0  0  0  0  0  0  0
   -4.4239  -15.4512   11.8642 N   0  0  0  0  0  0  0  0  0  0  0  0
   -4.1810  -16.7749   11.7916 C   0  0  0  0  0  0  0  0  0  0  0  0
   -4.7955  -17.5426   12.5010 O   0  0  0  0  0  0  0  0  0  0  0  0
   -3.1037  -17.3219   10.7903 B   0  0  0  0  0  0  0  0  0  0  0  0
  1  2  1  0
  2  3  2  0
  2  4  1  0
  4  5  1  0
  4  6  1  0
  6  7  1  0
  7  8  1  0
  8  9  2  0
  8 10  1  0
M  END
>  <Gold.Gold.Protein.RotatedWaterAtoms>  (617) 


>  <Gold.Id.Protein>  (617) 


>  <Gold.PLP.Chemscore.CHOScore>  (617) 
0.0000

>  <Gold.PLP.Chemscore.Hbond>  (617) 
2.0000

>  <Gold.PLP.Chemscore.Internal.Correction>  (617) 
0.0025

>  <Gold.PLP.Chemscore.Metal>  (617) 
0.0000

>  <Gold.PLP.Fitness>  (617) 
32.4238

>  <Gold.PLP.PLP>  (617) 
-29.4239

>  <Gold.PLP.ligand.clash>  (617) 
1.6096

>  <Gold.PLP.ligand.torsion>  (617) 
0.6965

>  <Gold.PLP.part.buried>  (617) 
-6.0794

>  <Gold.PLP.part.hbond>  (617) 
-6.6359

>  <Gold.PLP.part.metal>  (617) 
0.0000

>  <Gold.PLP.part.nonpolar>  (617) 
-16.4831

>  <Gold.PLP.part.repulsive>  (617) 
0.4260

>  <Gold.Protein.RotatedAtoms>  (617) 


>  <Gold.Protein.RotatedTorsions>  (617) 


>  <Gold.Protein.RotatedWaterAtoms>  (617) 


>  <Gold.Version>  (617) 
5.3.0

>  <PLP.Chemscore.CHOScore>  (617) 


>  <PLP.Chemscore.Hbond>  (617) 


>  <PLP.Chemscore.Internal.Correction>  (617) 


>  <PLP.Chemscore.Metal>  (617) 


>  <PLP.Fitness>  (617) 


>  <PLP.PLP>  (617) 


>  <PLP.ligand.clash>  (617) 


>  <PLP.ligand.torsion>  (617) 


>  <PLP.part.buried>  (617) 


>  <PLP.part.hbond>  (617) 


>  <PLP.part.metal>  (617) 


>  <PLP.part.nonpolar>  (617) 


>  <PLP.part.repulsive>  (617) 


>  <Version>  (617) 


$$$$
94|664022_40|Aromatic_carboxylic_acids_F|sdf|24|dock1|1
     RDKit          3D

 12 12  0  0  0  0  0  0  0  0999 V2000
   -8.2596  -17.1212   11.4595 C   0  0  0  0  0  0  0  0  0  0  0  0
   -7.6366  -15.8367   11.6688 N   0  0  0  0  0  0  0  0  0  0  0  0
   -8.3409  -14.6553   11.5719 C   0  0  0  0  0  0  0  0  0  0  0  0
   -9.5296  -14.5547   11.2978 O   0  0  0  0  0  0  0  0  0  0  0  0
   -7.5420  -13.4431   11.8503 C   0  0  0  0  0  0  0  0  0  0  0  0
   -8.1627  -12.1983   11.6738 C   0  0  0  0  0  0  0  0  0  0  0  0
   -7.4390  -11.0301   11.9055 C   0  0  0  0  0  0  0  0  0  0  0  0
   -6.1069  -11.0910   12.3103 C   0  0  0  0  0  0  0  0  0  0  0  0
   -5.4897  -12.3324   12.4853 C   0  0  0  0  0  0  0  0  0  0  0  0
   -6.2035  -13.5136   12.2549 C   0  0  0  0  0  0  0  0  0  0  0  0
   -5.3062  -15.1564   12.5638 Br  0  0  0  0  0  0  0  0  0  0  0  0
   -8.1960   -9.5005   11.6887 Cl  0  0  0  0  0  0  0  0  0  0  0  0
  1  2  1  0
  2  3  1  0
  3  4  2  0
  3  5  1  0
  5  6  2  0
  5 10  1  0
  6  7  1  0
  7  8  2  0
  7 12  1  0
  8  9  1  0
  9 10  2  0
 10 11  1  0
M  END
>  <Gold.Gold.Protein.RotatedWaterAtoms>  (618) 


>  <Gold.Id.Protein>  (618) 


>  <Gold.PLP.Chemscore.CHOScore>  (618) 
0.0000

>  <Gold.PLP.Chemscore.Hbond>  (618) 
0.4160

>  <Gold.PLP.Chemscore.Internal.Correction>  (618) 
0.0004

>  <Gold.PLP.Chemscore.Metal>  (618) 
0.0000

>  <Gold.PLP.Fitness>  (618) 
48.9046

>  <Gold.PLP.PLP>  (618) 
-47.6744

>  <Gold.PLP.ligand.clash>  (618) 
0.0000

>  <Gold.PLP.ligand.torsion>  (618) 
0.0091

>  <Gold.PLP.part.buried>  (618) 
-7.3578

>  <Gold.PLP.part.hbond>  (618) 
-0.5127

>  <Gold.PLP.part.metal>  (618) 
0.0000

>  <Gold.PLP.part.nonpolar>  (618) 
-40.3098

>  <Gold.PLP.part.repulsive>  (618) 
0.1684

>  <Gold.Protein.RotatedAtoms>  (618) 


>  <Gold.Protein.RotatedTorsions>  (618) 


>  <Gold.Protein.RotatedWaterAtoms>  (618) 


>  <Gold.Version>  (618) 
5.3.0

>  <PLP.Chemscore.CHOScore>  (618) 


>  <PLP.Chemscore.Hbond>  (618) 


>  <PLP.Chemscore.Internal.Correction>  (618) 


>  <PLP.Chemscore.Metal>  (618) 


>  <PLP.Fitness>  (618) 


>  <PLP.PLP>  (618) 


>  <PLP.ligand.clash>  (618) 


>  <PLP.ligand.torsion>  (618) 


>  <PLP.part.buried>  (618) 


>  <PLP.part.hbond>  (618) 


>  <PLP.part.metal>  (618) 


>  <PLP.part.nonpolar>  (618) 


>  <PLP.part.repulsive>  (618) 


>  <RMSD>  (618) 
0.30972197429

>  <Torsion>  (618) 
172.929186758

>  <TorsionO>  (618) 
24.4968065243

>  <TorsionR>  (618) 
162.574006718

>  <Version>  (618) 


>  <product>  (618) 
64|Compound_25|Compounds_3D_F|sdf|11|dock2|1

>  <rmsd>  (618) 
-1

$$$$
110|565385_49|Aromatic_carboxylic_acids_F|sdf|29|dock1|1
     RDKit          3D

 13 13  0  0  0  0  0  0  0  0999 V2000
  -10.1118  -17.9021   11.6320 C   0  0  0  0  0  0  0  0  0  0  0  0
   -9.7537  -16.5043   11.6546 N   0  0  0  0  0  0  0  0  0  0  0  0
   -8.4330  -16.1187   11.7930 C   0  0  0  0  0  0  0  0  0  0  0  0
   -7.5159  -16.9298   11.9008 O   0  0  0  0  0  0  0  0  0  0  0  0
   -8.1234  -14.6552   11.8105 C   0  0  0  0  0  0  0  0  0  0  0  0
   -9.0636  -13.6551   11.5375 C   0  0  0  0  0  0  0  0  0  0  0  0
   -8.6966  -12.3009   11.5726 C   0  0  0  0  0  0  0  0  0  0  0  0
   -7.3879  -11.9195   11.8809 C   0  0  0  0  0  0  0  0  0  0  0  0
   -6.4486  -12.9235   12.1551 C   0  0  0  0  0  0  0  0  0  0  0  0
   -6.8098  -14.2750   12.1207 C   0  0  0  0  0  0  0  0  0  0  0  0
   -4.6444  -12.5025   12.5849 Br  0  0  0  0  0  0  0  0  0  0  0  0
   -6.9476  -10.6242   11.9372 O   0  0  0  0  0  0  0  0  0  0  0  0
   -7.9020   -9.5910   11.7256 C   0  0  0  0  0  0  0  0  0  0  0  0
  1  2  1  0
  2  3  1  0
  3  4  2  0
  3  5  1  0
  5  6  2  0
  5 10  1  0
  6  7  1  0
  7  8  2  0
  8  9  1  0
  8 12  1  0
  9 10  2  0
  9 11  1  0
 12 13  1  0
M  END
>  <Gold.Gold.Protein.RotatedWaterAtoms>  (619) 


>  <Gold.Id.Protein>  (619) 


>  <Gold.PLP.Chemscore.CHOScore>  (619) 
0.0000

>  <Gold.PLP.Chemscore.Hbond>  (619) 
1.0000

>  <Gold.PLP.Chemscore.Internal.Correction>  (619) 
0.0000

>  <Gold.PLP.Chemscore.Metal>  (619) 
0.0000

>  <Gold.PLP.Fitness>  (619) 
43.9775

>  <Gold.PLP.PLP>  (619) 
-41.0517

>  <Gold.PLP.ligand.clash>  (619) 
0.0000

>  <Gold.PLP.ligand.torsion>  (619) 
0.0371

>  <Gold.PLP.part.buried>  (619) 
-3.7367

>  <Gold.PLP.part.hbond>  (619) 
-1.0000

>  <Gold.PLP.part.metal>  (619) 
0.0000

>  <Gold.PLP.part.nonpolar>  (619) 
-36.7483

>  <Gold.PLP.part.repulsive>  (619) 
0.4054

>  <Gold.Protein.RotatedAtoms>  (619) 


>  <Gold.Protein.RotatedTorsions>  (619) 


>  <Gold.Protein.RotatedWaterAtoms>  (619) 


>  <Gold.Version>  (619) 
5.3.0

>  <PLP.Chemscore.CHOScore>  (619) 


>  <PLP.Chemscore.Hbond>  (619) 


>  <PLP.Chemscore.Internal.Correction>  (619) 


>  <PLP.Chemscore.Metal>  (619) 


>  <PLP.Fitness>  (619) 


>  <PLP.PLP>  (619) 


>  <PLP.ligand.clash>  (619) 


>  <PLP.ligand.torsion>  (619) 


>  <PLP.part.buried>  (619) 


>  <PLP.part.hbond>  (619) 


>  <PLP.part.metal>  (619) 


>  <PLP.part.nonpolar>  (619) 


>  <PLP.part.repulsive>  (619) 


>  <RMSD>  (619) 
0.319376411377

>  <Torsion>  (619) 
169.460450784

>  <TorsionO>  (619) 
9.7963905484

>  <TorsionR>  (619) 
179.256841332

>  <Version>  (619) 


>  <product>  (619) 
64|Compound_25|Compounds_3D_F|sdf|11|dock2|1

>  <rmsd>  (619) 
-1

$$$$
128|137677_56|Aromatic_carboxylic_acids_F|sdf|33|dock1|1
     RDKit          3D

 11 11  0  0  0  0  0  0  0  0999 V2000
   -8.6116  -16.1544   11.8887 C   0  0  0  0  0  0  0  0  0  0  0  0
   -7.9978  -14.8484   11.9215 N   0  0  0  0  0  0  0  0  0  0  0  0
   -8.7778  -13.7008   11.8756 C   0  0  0  0  0  0  0  0  0  0  0  0
  -10.0002  -13.7896   11.8139 O   0  0  0  0  0  0  0  0  0  0  0  0
   -8.0808  -12.3609   11.9017 C   0  0  0  0  0  0  0  0  0  0  0  0
   -8.7916  -11.1851   11.5813 C   0  0  0  0  0  0  0  0  0  0  0  0
   -8.1781   -9.9267   11.5989 C   0  0  0  0  0  0  0  0  0  0  0  0
   -6.8391   -9.8089   11.9369 C   0  0  0  0  0  0  0  0  0  0  0  0
   -6.1124  -10.9502   12.2575 C   0  0  0  0  0  0  0  0  0  0  0  0
   -6.7171  -12.2196   12.2428 C   0  0  0  0  0  0  0  0  0  0  0  0
   -5.5419  -13.6455   12.7121 Br  0  0  0  0  0  0  0  0  0  0  0  0
  1  2  1  0
  2  3  1  0
  3  4  2  0
  3  5  1  0
  5  6  2  0
  5 10  1  0
  6  7  1  0
  7  8  2  0
  8  9  1  0
  9 10  2  0
 10 11  1  0
M  END
>  <Gold.Gold.Protein.RotatedWaterAtoms>  (620) 


>  <Gold.Id.Protein>  (620) 


>  <Gold.PLP.Chemscore.CHOScore>  (620) 
0.0000

>  <Gold.PLP.Chemscore.Hbond>  (620) 
1.0000

>  <Gold.PLP.Chemscore.Internal.Correction>  (620) 
0.0000

>  <Gold.PLP.Chemscore.Metal>  (620) 
0.0000

>  <Gold.PLP.Fitness>  (620) 
45.2899

>  <Gold.PLP.PLP>  (620) 
-42.4444

>  <Gold.PLP.ligand.clash>  (620) 
0.0000

>  <Gold.PLP.ligand.torsion>  (620) 
0.0772

>  <Gold.PLP.part.buried>  (620) 
-6.4690

>  <Gold.PLP.part.hbond>  (620) 
-0.6863

>  <Gold.PLP.part.metal>  (620) 
0.0000

>  <Gold.PLP.part.nonpolar>  (620) 
-34.8280

>  <Gold.PLP.part.repulsive>  (620) 
0.1963

>  <Gold.Protein.RotatedAtoms>  (620) 


>  <Gold.Protein.RotatedTorsions>  (620) 


>  <Gold.Protein.RotatedWaterAtoms>  (620) 


>  <Gold.Version>  (620) 
5.3.0

>  <PLP.Chemscore.CHOScore>  (620) 


>  <PLP.Chemscore.Hbond>  (620) 


>  <PLP.Chemscore.Internal.Correction>  (620) 


>  <PLP.Chemscore.Metal>  (620) 


>  <PLP.Fitness>  (620) 


>  <PLP.PLP>  (620) 


>  <PLP.ligand.clash>  (620) 


>  <PLP.ligand.torsion>  (620) 


>  <PLP.part.buried>  (620) 


>  <PLP.part.hbond>  (620) 


>  <PLP.part.metal>  (620) 


>  <PLP.part.nonpolar>  (620) 


>  <PLP.part.repulsive>  (620) 


>  <RMSD>  (620) 
0.428070490903

>  <Torsion>  (620) 
152.444048788

>  <TorsionO>  (620) 
39.0580871276

>  <TorsionR>  (620) 
168.497864085

>  <Version>  (620) 


>  <product>  (620) 
64|Compound_25|Compounds_3D_F|sdf|11|dock2|1

>  <rmsd>  (620) 
-1

$$$$
974|750794_1404|Aromatic_primary_amines_F|sdf|194|dock3|1
     RDKit          3D

 14 14  0  0  0  0  0  0  0  0999 V2000
  -13.6355  -18.1936    9.4145 C   0  0  0  0  0  0  0  0  0  0  0  0
  -13.2544  -19.4497   10.1732 C   0  0  0  0  0  0  0  0  0  0  0  0
  -11.8731  -19.3506   10.5383 O   0  0  0  0  0  0  0  0  0  0  0  0
  -11.6148  -18.5085   11.5823 C   0  0  0  0  0  0  0  0  0  0  0  0
  -12.3947  -18.2810   12.5004 O   0  0  0  0  0  0  0  0  0  0  0  0
  -10.3031  -17.8985   11.4902 C   0  0  0  0  0  0  0  0  0  0  0  0
   -9.1673  -18.4974   10.9931 C   0  0  0  0  0  0  0  0  0  0  0  0
   -8.1448  -17.6055   11.0758 O   0  0  0  0  0  0  0  0  0  0  0  0
   -8.7110  -16.4917   11.6237 C   0  0  0  0  0  0  0  0  0  0  0  0
   -9.9933  -16.6110   11.8915 N   0  0  0  0  0  0  0  0  0  0  0  0
   -7.9611  -15.3718   11.8549 N   0  0  0  0  0  0  0  0  0  0  0  0
   -8.5046  -14.1249   12.0676 C   0  0  0  0  0  0  0  0  0  0  0  0
   -9.6950  -13.8313   12.1035 O   0  0  0  0  0  0  0  0  0  0  0  0
   -7.4448  -13.0785   12.3021 C   0  0  0  0  0  0  0  0  0  0  0  0
  1  2  1  0
  2  3  1  0
  3  4  1  0
  4  5  2  0
  4  6  1  0
  6  7  2  0
  6 10  1  0
  7  8  1  0
  8  9  1  0
  9 10  2  0
  9 11  1  0
 11 12  1  0
 12 13  2  0
 12 14  1  0
M  END
>  <Gold.Gold.Protein.RotatedWaterAtoms>  (621) 


>  <Gold.Id.Protein>  (621) 


>  <Gold.PLP.Chemscore.CHOScore>  (621) 
0.0000

>  <Gold.PLP.Chemscore.Hbond>  (621) 
2.0000

>  <Gold.PLP.Chemscore.Internal.Correction>  (621) 
0.0053

>  <Gold.PLP.Chemscore.Metal>  (621) 
0.0000

>  <Gold.PLP.Fitness>  (621) 
36.8047

>  <Gold.PLP.PLP>  (621) 
-32.7996

>  <Gold.PLP.ligand.clash>  (621) 
0.0000

>  <Gold.PLP.ligand.torsion>  (621) 
1.0001

>  <Gold.PLP.part.buried>  (621) 
-6.5206

>  <Gold.PLP.part.hbond>  (621) 
-2.9156

>  <Gold.PLP.part.metal>  (621) 
0.0000

>  <Gold.PLP.part.nonpolar>  (621) 
-23.4080

>  <Gold.PLP.part.repulsive>  (621) 
0.3100

>  <Gold.Protein.RotatedAtoms>  (621) 


>  <Gold.Protein.RotatedTorsions>  (621) 


>  <Gold.Protein.RotatedWaterAtoms>  (621) 


>  <Gold.Version>  (621) 
5.3.0

>  <PLP.Chemscore.CHOScore>  (621) 


>  <PLP.Chemscore.Hbond>  (621) 


>  <PLP.Chemscore.Internal.Correction>  (621) 


>  <PLP.Chemscore.Metal>  (621) 


>  <PLP.Fitness>  (621) 


>  <PLP.PLP>  (621) 


>  <PLP.ligand.clash>  (621) 


>  <PLP.ligand.torsion>  (621) 


>  <PLP.part.buried>  (621) 


>  <PLP.part.hbond>  (621) 


>  <PLP.part.metal>  (621) 


>  <PLP.part.nonpolar>  (621) 


>  <PLP.part.repulsive>  (621) 


>  <RMSD>  (621) 
0.499949349045

>  <Torsion>  (621) 
159.973716791

>  <TorsionO>  (621) 
19.1052109979

>  <TorsionR>  (621) 
179.078927789

>  <Version>  (621) 


>  <product>  (621) 
64|Compound_25|Compounds_3D_F|sdf|11|dock2|1

>  <rmsd>  (621) 
-1

$$$$
1884|M3006_1781|Aromatic_primary_amines_F|sdf|361|dock3|1
     RDKit          3D

 31 34  0  0  0  0  0  0  0  0999 V2000
  -14.4210  -19.8971    8.7934 C   0  0  0  0  0  0  0  0  0  0  0  0
  -13.9762  -19.4927   10.1894 C   0  0  0  0  0  0  0  0  0  0  0  0
  -14.1356  -20.6409   11.1817 C   0  0  0  0  0  0  0  0  0  0  0  0
  -13.5197  -20.3070   12.5189 C   0  0  0  0  0  0  0  0  0  0  0  0
  -12.9307  -19.2724   12.7954 O   0  0  0  0  0  0  0  0  0  0  0  0
  -13.7110  -21.3451   13.3845 O   0  0  0  0  0  0  0  0  0  0  0  0
  -12.9425  -21.2698   14.5900 C   0  0  0  0  0  0  0  0  0  0  0  0
  -12.8849  -22.6189   15.2889 C   0  0  0  0  0  0  0  0  0  0  0  0
  -11.6552  -22.4172   16.1494 C   0  0  0  0  0  0  0  0  0  0  0  0
  -11.2420  -23.7410   16.7624 C   0  0  0  0  0  0  0  0  0  0  0  0
  -12.3024  -24.2223   17.5862 O   0  0  0  0  0  0  0  0  0  0  0  0
  -13.7888  -24.3384   16.9603 P   0  0  0  0  0  0  0  0  0  0  0  0
  -14.8775  -24.6795   17.9243 O   0  0  0  0  0  0  0  0  0  0  0  0
  -13.9839  -22.9641   16.1174 O   0  0  0  0  0  0  0  0  0  0  0  0
  -13.5991  -25.4435   15.8075 O   0  0  0  0  0  0  0  0  0  0  0  0
  -10.6922  -21.8161   15.2889 O   0  0  0  0  0  0  0  0  0  0  0  0
  -11.4338  -20.9664   14.3653 C   0  0  0  0  0  0  0  0  0  0  0  0
  -10.9052  -21.2017   13.0342 N   0  0  0  0  0  0  0  0  0  0  0  0
  -10.7814  -22.4114   12.4013 C   0  0  0  0  0  0  0  0  0  0  0  0
  -10.2640  -22.2918   11.1953 N   0  0  0  0  0  0  0  0  0  0  0  0
  -10.0274  -20.9476   11.0424 C   0  0  0  0  0  0  0  0  0  0  0  0
  -10.4203  -20.2487   12.1733 C   0  0  0  0  0  0  0  0  0  0  0  0
  -10.3338  -18.9216   12.3641 N   0  0  0  0  0  0  0  0  0  0  0  0
   -9.8057  -18.2730   11.3024 C   0  0  0  0  0  0  0  0  0  0  0  0
   -9.3808  -18.8370   10.1545 N   0  0  0  0  0  0  0  0  0  0  0  0
   -9.4895  -20.1691   10.0244 C   0  0  0  0  0  0  0  0  0  0  0  0
   -9.0330  -20.6622    8.8349 O   0  0  0  0  0  0  0  0  0  0  0  0
   -9.7222  -16.8901   11.4793 N   0  0  0  0  0  0  0  0  0  0  0  0
   -8.5796  -16.1798   11.7761 C   0  0  0  0  0  0  0  0  0  0  0  0
   -7.4445  -16.6221   11.9131 O   0  0  0  0  0  0  0  0  0  0  0  0
   -8.8524  -14.7024   11.8973 C   0  0  0  0  0  0  0  0  0  0  0  0
  1  2  1  0
  2  3  1  0
  3  4  1  0
  4  5  2  0
  4  6  1  0
  6  7  1  0
  7  8  1  0
  7 17  1  0
  8  9  1  0
  8 14  1  0
  9 10  1  0
  9 16  1  0
 10 11  1  0
 11 12  1  0
 12 13  2  0
 12 14  1  0
 12 15  1  0
 16 17  1  0
 17 18  1  0
 18 19  1  0
 18 22  1  0
 19 20  2  0
 20 21  1  0
 21 22  2  0
 21 26  1  0
 22 23  1  0
 23 24  2  0
 24 25  1  0
 24 28  1  0
 25 26  2  0
 26 27  1  0
 28 29  1  0
 29 30  2  0
 29 31  1  0
M  END
>  <Gold.Gold.Protein.RotatedWaterAtoms>  (622) 


>  <Gold.Id.Protein>  (622) 


>  <Gold.PLP.Chemscore.CHOScore>  (622) 
0.0000

>  <Gold.PLP.Chemscore.Hbond>  (622) 
1.2080

>  <Gold.PLP.Chemscore.Internal.Correction>  (622) 
0.1232

>  <Gold.PLP.Chemscore.Metal>  (622) 
0.0000

>  <Gold.PLP.Fitness>  (622) 
47.7145

>  <Gold.PLP.PLP>  (622) 
-46.0218

>  <Gold.PLP.ligand.clash>  (622) 
0.0000

>  <Gold.PLP.ligand.torsion>  (622) 
1.0272

>  <Gold.PLP.part.buried>  (622) 
-2.2958

>  <Gold.PLP.part.hbond>  (622) 
-4.0214

>  <Gold.PLP.part.metal>  (622) 
0.0000

>  <Gold.PLP.part.nonpolar>  (622) 
-41.4699

>  <Gold.PLP.part.repulsive>  (622) 
0.9524

>  <Gold.Protein.RotatedAtoms>  (622) 


>  <Gold.Protein.RotatedTorsions>  (622) 


>  <Gold.Protein.RotatedWaterAtoms>  (622) 


>  <Gold.Version>  (622) 
5.3.0

>  <PLP.Chemscore.CHOScore>  (622) 


>  <PLP.Chemscore.Hbond>  (622) 


>  <PLP.Chemscore.Internal.Correction>  (622) 


>  <PLP.Chemscore.Metal>  (622) 


>  <PLP.Fitness>  (622) 


>  <PLP.PLP>  (622) 


>  <PLP.ligand.clash>  (622) 


>  <PLP.ligand.torsion>  (622) 


>  <PLP.part.buried>  (622) 


>  <PLP.part.hbond>  (622) 


>  <PLP.part.metal>  (622) 


>  <PLP.part.nonpolar>  (622) 


>  <PLP.part.repulsive>  (622) 


>  <RMSD>  (622) 
0.291955871297

>  <Torsion>  (622) 
171.923704933

>  <TorsionO>  (622) 
6.03609353985

>  <TorsionR>  (622) 
177.959798473

>  <Version>  (622) 


>  <product>  (622) 
64|Compound_25|Compounds_3D_F|sdf|11|dock2|1

>  <rmsd>  (622) 
-1

$$$$
193|32168_281|Aromatic_primary_amines_F|sdf|39|dock6|1
     RDKit          3D

 23 25  0  0  0  0  0  0  0  0999 V2000
   -7.8439  -12.1461   11.8919 C   0  0  0  0  0  0  0  0  0  0  0  0
   -8.5691  -13.4472   11.6781 C   0  0  0  0  0  0  0  0  0  0  0  0
   -9.7886  -13.4981   11.5208 O   0  0  0  0  0  0  0  0  0  0  0  0
   -7.7264  -14.5390   11.7020 N   0  0  0  0  0  0  0  0  0  0  0  0
   -8.1889  -15.8197   11.5323 C   0  0  0  0  0  0  0  0  0  0  0  0
   -9.4747  -16.2039   11.8163 N   0  0  0  0  0  0  0  0  0  0  0  0
   -9.5964  -17.5375   11.5379 C   0  0  0  0  0  0  0  0  0  0  0  0
  -10.6643  -18.4283   11.6415 C   0  0  0  0  0  0  0  0  0  0  0  0
  -10.4051  -19.7586   11.2778 C   0  0  0  0  0  0  0  0  0  0  0  0
   -9.1530  -20.1507   10.7795 C   0  0  0  0  0  0  0  0  0  0  0  0
   -8.1017  -19.2294   10.6839 C   0  0  0  0  0  0  0  0  0  0  0  0
   -8.3349  -17.9032   11.0783 C   0  0  0  0  0  0  0  0  0  0  0  0
   -7.4773  -16.8281   11.0838 N   0  0  0  0  0  0  0  0  0  0  0  0
   -8.8530  -21.7658   10.2429 Cl  0  0  0  0  0  0  0  0  0  0  0  0
  -11.4669  -20.6323   11.3734 O   0  0  0  0  0  0  0  0  0  0  0  0
  -12.5262  -20.4408   10.5053 C   0  0  0  0  0  0  0  0  0  0  0  0
  -13.3188  -19.2846   10.5304 C   0  0  0  0  0  0  0  0  0  0  0  0
  -14.3665  -19.1344    9.6224 C   0  0  0  0  0  0  0  0  0  0  0  0
  -14.6219  -20.1279    8.6796 C   0  0  0  0  0  0  0  0  0  0  0  0
  -13.8238  -21.2756    8.6345 C   0  0  0  0  0  0  0  0  0  0  0  0
  -12.7674  -21.4342    9.5416 C   0  0  0  0  0  0  0  0  0  0  0  0
  -11.7588  -22.8458    9.4996 Cl  0  0  0  0  0  0  0  0  0  0  0  0
  -14.1988  -22.4584    7.4296 Cl  0  0  0  0  0  0  0  0  0  0  0  0
  1  2  1  0
  2  3  2  0
  2  4  1  0
  4  5  1  0
  5  6  1  0
  5 13  2  0
  6  7  1  0
  7  8  2  0
  7 12  1  0
  8  9  1  0
  9 10  2  0
  9 15  1  0
 10 11  1  0
 10 14  1  0
 11 12  2  0
 12 13  1  0
 15 16  1  0
 16 17  2  0
 16 21  1  0
 17 18  1  0
 18 19  2  0
 19 20  1  0
 20 21  2  0
 20 23  1  0
 21 22  1  0
M  END
>  <Gold.Gold.Protein.RotatedWaterAtoms>  (623) 


>  <Gold.Id.Protein>  (623) 


>  <Gold.PLP.Chemscore.CHOScore>  (623) 
0.0000

>  <Gold.PLP.Chemscore.Hbond>  (623) 
1.0000

>  <Gold.PLP.Chemscore.Internal.Correction>  (623) 
0.0086

>  <Gold.PLP.Chemscore.Metal>  (623) 
0.0000

>  <Gold.PLP.Fitness>  (623) 
50.7139

>  <Gold.PLP.PLP>  (623) 
-48.1706

>  <Gold.PLP.ligand.clash>  (623) 
0.0000

>  <Gold.PLP.ligand.torsion>  (623) 
0.2327

>  <Gold.PLP.part.buried>  (623) 
-6.5205

>  <Gold.PLP.part.hbond>  (623) 
-2.0000

>  <Gold.PLP.part.metal>  (623) 
0.0000

>  <Gold.PLP.part.nonpolar>  (623) 
-39.3857

>  <Gold.PLP.part.repulsive>  (623) 
0.3298

>  <Gold.Protein.RotatedAtoms>  (623) 


>  <Gold.Protein.RotatedTorsions>  (623) 


>  <Gold.Protein.RotatedWaterAtoms>  (623) 


>  <Gold.Version>  (623) 
5.3.0

>  <PLP.Chemscore.CHOScore>  (623) 


>  <PLP.Chemscore.Hbond>  (623) 


>  <PLP.Chemscore.Internal.Correction>  (623) 


>  <PLP.Chemscore.Metal>  (623) 


>  <PLP.Fitness>  (623) 


>  <PLP.PLP>  (623) 


>  <PLP.ligand.clash>  (623) 


>  <PLP.ligand.torsion>  (623) 


>  <PLP.part.buried>  (623) 


>  <PLP.part.hbond>  (623) 


>  <PLP.part.metal>  (623) 


>  <PLP.part.nonpolar>  (623) 


>  <PLP.part.repulsive>  (623) 


>  <RMSD>  (623) 
0.439733510035

>  <Torsion>  (623) 
177.672185574

>  <TorsionO>  (623) 
4.31728583372

>  <TorsionR>  (623) 
173.35489974

>  <Version>  (623) 


>  <product>  (623) 
64|Compound_25|Compounds_3D_F|sdf|11|dock2|1

>  <rmsd>  (623) 
-1

$$$$
74|Compound_26|Compounds_3D_F|sdf|12|dock6|1
     RDKit          3D

  9  8  0  0  0  0  0  0  0  0999 V2000
   -4.3229  -12.1364   13.1000 O   0  0  0  0  0  0  0  0  0  0  0  0
   -5.5167  -12.0160   12.5000 C   0  0  0  0  0  0  0  0  0  0  0  0
   -6.0574  -10.9365   12.4393 O   0  0  0  0  0  0  0  0  0  0  0  0
   -6.1851  -13.2270   11.9016 C   0  0  0  0  0  0  0  0  0  0  0  0
   -5.8276  -14.4665   12.7242 C   0  0  0  0  0  0  0  0  0  0  0  0
   -4.5965  -15.0629   12.1996 N   0  0  0  0  0  0  0  0  0  0  0  0
   -4.5590  -16.3753   11.8975 C   0  0  0  0  0  0  0  0  0  0  0  0
   -5.5442  -17.0635   12.0593 O   0  0  0  0  0  0  0  0  0  0  0  0
   -3.2400  -17.0141   11.3339 B   0  0  0  0  0  0  0  0  0  0  0  0
  1  2  1  0
  2  3  2  0
  2  4  1  0
  4  5  1  0
  5  6  1  0
  6  7  1  0
  7  8  2  0
  7  9  1  0
M  END
>  <Gold.Gold.Protein.RotatedWaterAtoms>  (624) 


>  <Gold.Id.Protein>  (624) 


>  <Gold.PLP.Chemscore.CHOScore>  (624) 
0.0000

>  <Gold.PLP.Chemscore.Hbond>  (624) 
1.9588

>  <Gold.PLP.Chemscore.Internal.Correction>  (624) 
0.0004

>  <Gold.PLP.Chemscore.Metal>  (624) 
0.0000

>  <Gold.PLP.Fitness>  (624) 
32.3786

>  <Gold.PLP.PLP>  (624) 
-27.6627

>  <Gold.PLP.ligand.clash>  (624) 
0.0000

>  <Gold.PLP.ligand.torsion>  (624) 
0.5804

>  <Gold.PLP.part.buried>  (624) 
-6.4082

>  <Gold.PLP.part.hbond>  (624) 
-4.5832

>  <Gold.PLP.part.metal>  (624) 
0.0000

>  <Gold.PLP.part.nonpolar>  (624) 
-17.3859

>  <Gold.PLP.part.repulsive>  (624) 
0.4530

>  <Gold.Protein.RotatedAtoms>  (624) 


>  <Gold.Protein.RotatedTorsions>  (624) 


>  <Gold.Protein.RotatedWaterAtoms>  (624) 


>  <Gold.Version>  (624) 
5.3.0

>  <PLP.Chemscore.CHOScore>  (624) 


>  <PLP.Chemscore.Hbond>  (624) 


>  <PLP.Chemscore.Internal.Correction>  (624) 


>  <PLP.Chemscore.Metal>  (624) 


>  <PLP.Fitness>  (624) 


>  <PLP.PLP>  (624) 


>  <PLP.ligand.clash>  (624) 


>  <PLP.ligand.torsion>  (624) 


>  <PLP.part.buried>  (624) 


>  <PLP.part.hbond>  (624) 


>  <PLP.part.metal>  (624) 


>  <PLP.part.nonpolar>  (624) 


>  <PLP.part.repulsive>  (624) 


>  <Version>  (624) 


$$$$
94|664022_40|Aromatic_carboxylic_acids_F|sdf|24|dock1|1
     RDKit          3D

 12 12  0  0  0  0  0  0  0  0999 V2000
   -8.2596  -17.1212   11.4595 C   0  0  0  0  0  0  0  0  0  0  0  0
   -7.6366  -15.8367   11.6688 N   0  0  0  0  0  0  0  0  0  0  0  0
   -8.3409  -14.6553   11.5719 C   0  0  0  0  0  0  0  0  0  0  0  0
   -9.5296  -14.5547   11.2978 O   0  0  0  0  0  0  0  0  0  0  0  0
   -7.5420  -13.4431   11.8503 C   0  0  0  0  0  0  0  0  0  0  0  0
   -8.1627  -12.1983   11.6738 C   0  0  0  0  0  0  0  0  0  0  0  0
   -7.4390  -11.0301   11.9055 C   0  0  0  0  0  0  0  0  0  0  0  0
   -6.1069  -11.0910   12.3103 C   0  0  0  0  0  0  0  0  0  0  0  0
   -5.4897  -12.3324   12.4853 C   0  0  0  0  0  0  0  0  0  0  0  0
   -6.2035  -13.5136   12.2549 C   0  0  0  0  0  0  0  0  0  0  0  0
   -5.3062  -15.1564   12.5638 Br  0  0  0  0  0  0  0  0  0  0  0  0
   -8.1960   -9.5005   11.6887 Cl  0  0  0  0  0  0  0  0  0  0  0  0
  1  2  1  0
  2  3  1  0
  3  4  2  0
  3  5  1  0
  5  6  2  0
  5 10  1  0
  6  7  1  0
  7  8  2  0
  7 12  1  0
  8  9  1  0
  9 10  2  0
 10 11  1  0
M  END
>  <Gold.Gold.Protein.RotatedWaterAtoms>  (625) 


>  <Gold.Id.Protein>  (625) 


>  <Gold.PLP.Chemscore.CHOScore>  (625) 
0.0000

>  <Gold.PLP.Chemscore.Hbond>  (625) 
0.4160

>  <Gold.PLP.Chemscore.Internal.Correction>  (625) 
0.0004

>  <Gold.PLP.Chemscore.Metal>  (625) 
0.0000

>  <Gold.PLP.Fitness>  (625) 
48.9046

>  <Gold.PLP.PLP>  (625) 
-47.6744

>  <Gold.PLP.ligand.clash>  (625) 
0.0000

>  <Gold.PLP.ligand.torsion>  (625) 
0.0091

>  <Gold.PLP.part.buried>  (625) 
-7.3578

>  <Gold.PLP.part.hbond>  (625) 
-0.5127

>  <Gold.PLP.part.metal>  (625) 
0.0000

>  <Gold.PLP.part.nonpolar>  (625) 
-40.3098

>  <Gold.PLP.part.repulsive>  (625) 
0.1684

>  <Gold.Protein.RotatedAtoms>  (625) 


>  <Gold.Protein.RotatedTorsions>  (625) 


>  <Gold.Protein.RotatedWaterAtoms>  (625) 


>  <Gold.Version>  (625) 
5.3.0

>  <PLP.Chemscore.CHOScore>  (625) 


>  <PLP.Chemscore.Hbond>  (625) 


>  <PLP.Chemscore.Internal.Correction>  (625) 


>  <PLP.Chemscore.Metal>  (625) 


>  <PLP.Fitness>  (625) 


>  <PLP.PLP>  (625) 


>  <PLP.ligand.clash>  (625) 


>  <PLP.ligand.torsion>  (625) 


>  <PLP.part.buried>  (625) 


>  <PLP.part.hbond>  (625) 


>  <PLP.part.metal>  (625) 


>  <PLP.part.nonpolar>  (625) 


>  <PLP.part.repulsive>  (625) 


>  <RMSD>  (625) 
0.30972197429

>  <Torsion>  (625) 
172.929186758

>  <TorsionO>  (625) 
24.4968065243

>  <TorsionR>  (625) 
162.574006718

>  <Version>  (625) 


>  <product>  (625) 
74|Compound_26|Compounds_3D_F|sdf|12|dock6|1

>  <rmsd>  (625) 
-1

$$$$
110|565385_49|Aromatic_carboxylic_acids_F|sdf|29|dock1|1
     RDKit          3D

 13 13  0  0  0  0  0  0  0  0999 V2000
  -10.1118  -17.9021   11.6320 C   0  0  0  0  0  0  0  0  0  0  0  0
   -9.7537  -16.5043   11.6546 N   0  0  0  0  0  0  0  0  0  0  0  0
   -8.4330  -16.1187   11.7930 C   0  0  0  0  0  0  0  0  0  0  0  0
   -7.5159  -16.9298   11.9008 O   0  0  0  0  0  0  0  0  0  0  0  0
   -8.1234  -14.6552   11.8105 C   0  0  0  0  0  0  0  0  0  0  0  0
   -9.0636  -13.6551   11.5375 C   0  0  0  0  0  0  0  0  0  0  0  0
   -8.6966  -12.3009   11.5726 C   0  0  0  0  0  0  0  0  0  0  0  0
   -7.3879  -11.9195   11.8809 C   0  0  0  0  0  0  0  0  0  0  0  0
   -6.4486  -12.9235   12.1551 C   0  0  0  0  0  0  0  0  0  0  0  0
   -6.8098  -14.2750   12.1207 C   0  0  0  0  0  0  0  0  0  0  0  0
   -4.6444  -12.5025   12.5849 Br  0  0  0  0  0  0  0  0  0  0  0  0
   -6.9476  -10.6242   11.9372 O   0  0  0  0  0  0  0  0  0  0  0  0
   -7.9020   -9.5910   11.7256 C   0  0  0  0  0  0  0  0  0  0  0  0
  1  2  1  0
  2  3  1  0
  3  4  2  0
  3  5  1  0
  5  6  2  0
  5 10  1  0
  6  7  1  0
  7  8  2  0
  8  9  1  0
  8 12  1  0
  9 10  2  0
  9 11  1  0
 12 13  1  0
M  END
>  <Gold.Gold.Protein.RotatedWaterAtoms>  (626) 


>  <Gold.Id.Protein>  (626) 


>  <Gold.PLP.Chemscore.CHOScore>  (626) 
0.0000

>  <Gold.PLP.Chemscore.Hbond>  (626) 
1.0000

>  <Gold.PLP.Chemscore.Internal.Correction>  (626) 
0.0000

>  <Gold.PLP.Chemscore.Metal>  (626) 
0.0000

>  <Gold.PLP.Fitness>  (626) 
43.9775

>  <Gold.PLP.PLP>  (626) 
-41.0517

>  <Gold.PLP.ligand.clash>  (626) 
0.0000

>  <Gold.PLP.ligand.torsion>  (626) 
0.0371

>  <Gold.PLP.part.buried>  (626) 
-3.7367

>  <Gold.PLP.part.hbond>  (626) 
-1.0000

>  <Gold.PLP.part.metal>  (626) 
0.0000

>  <Gold.PLP.part.nonpolar>  (626) 
-36.7483

>  <Gold.PLP.part.repulsive>  (626) 
0.4054

>  <Gold.Protein.RotatedAtoms>  (626) 


>  <Gold.Protein.RotatedTorsions>  (626) 


>  <Gold.Protein.RotatedWaterAtoms>  (626) 


>  <Gold.Version>  (626) 
5.3.0

>  <PLP.Chemscore.CHOScore>  (626) 


>  <PLP.Chemscore.Hbond>  (626) 


>  <PLP.Chemscore.Internal.Correction>  (626) 


>  <PLP.Chemscore.Metal>  (626) 


>  <PLP.Fitness>  (626) 


>  <PLP.PLP>  (626) 


>  <PLP.ligand.clash>  (626) 


>  <PLP.ligand.torsion>  (626) 


>  <PLP.part.buried>  (626) 


>  <PLP.part.hbond>  (626) 


>  <PLP.part.metal>  (626) 


>  <PLP.part.nonpolar>  (626) 


>  <PLP.part.repulsive>  (626) 


>  <RMSD>  (626) 
0.319376411377

>  <Torsion>  (626) 
169.460450784

>  <TorsionO>  (626) 
9.7963905484

>  <TorsionR>  (626) 
179.256841332

>  <Version>  (626) 


>  <product>  (626) 
74|Compound_26|Compounds_3D_F|sdf|12|dock6|1

>  <rmsd>  (626) 
-1

$$$$
128|137677_56|Aromatic_carboxylic_acids_F|sdf|33|dock1|1
     RDKit          3D

 11 11  0  0  0  0  0  0  0  0999 V2000
   -8.6116  -16.1544   11.8887 C   0  0  0  0  0  0  0  0  0  0  0  0
   -7.9978  -14.8484   11.9215 N   0  0  0  0  0  0  0  0  0  0  0  0
   -8.7778  -13.7008   11.8756 C   0  0  0  0  0  0  0  0  0  0  0  0
  -10.0002  -13.7896   11.8139 O   0  0  0  0  0  0  0  0  0  0  0  0
   -8.0808  -12.3609   11.9017 C   0  0  0  0  0  0  0  0  0  0  0  0
   -8.7916  -11.1851   11.5813 C   0  0  0  0  0  0  0  0  0  0  0  0
   -8.1781   -9.9267   11.5989 C   0  0  0  0  0  0  0  0  0  0  0  0
   -6.8391   -9.8089   11.9369 C   0  0  0  0  0  0  0  0  0  0  0  0
   -6.1124  -10.9502   12.2575 C   0  0  0  0  0  0  0  0  0  0  0  0
   -6.7171  -12.2196   12.2428 C   0  0  0  0  0  0  0  0  0  0  0  0
   -5.5419  -13.6455   12.7121 Br  0  0  0  0  0  0  0  0  0  0  0  0
  1  2  1  0
  2  3  1  0
  3  4  2  0
  3  5  1  0
  5  6  2  0
  5 10  1  0
  6  7  1  0
  7  8  2  0
  8  9  1  0
  9 10  2  0
 10 11  1  0
M  END
>  <Gold.Gold.Protein.RotatedWaterAtoms>  (627) 


>  <Gold.Id.Protein>  (627) 


>  <Gold.PLP.Chemscore.CHOScore>  (627) 
0.0000

>  <Gold.PLP.Chemscore.Hbond>  (627) 
1.0000

>  <Gold.PLP.Chemscore.Internal.Correction>  (627) 
0.0000

>  <Gold.PLP.Chemscore.Metal>  (627) 
0.0000

>  <Gold.PLP.Fitness>  (627) 
45.2899

>  <Gold.PLP.PLP>  (627) 
-42.4444

>  <Gold.PLP.ligand.clash>  (627) 
0.0000

>  <Gold.PLP.ligand.torsion>  (627) 
0.0772

>  <Gold.PLP.part.buried>  (627) 
-6.4690

>  <Gold.PLP.part.hbond>  (627) 
-0.6863

>  <Gold.PLP.part.metal>  (627) 
0.0000

>  <Gold.PLP.part.nonpolar>  (627) 
-34.8280

>  <Gold.PLP.part.repulsive>  (627) 
0.1963

>  <Gold.Protein.RotatedAtoms>  (627) 


>  <Gold.Protein.RotatedTorsions>  (627) 


>  <Gold.Protein.RotatedWaterAtoms>  (627) 


>  <Gold.Version>  (627) 
5.3.0

>  <PLP.Chemscore.CHOScore>  (627) 


>  <PLP.Chemscore.Hbond>  (627) 


>  <PLP.Chemscore.Internal.Correction>  (627) 


>  <PLP.Chemscore.Metal>  (627) 


>  <PLP.Fitness>  (627) 


>  <PLP.PLP>  (627) 


>  <PLP.ligand.clash>  (627) 


>  <PLP.ligand.torsion>  (627) 


>  <PLP.part.buried>  (627) 


>  <PLP.part.hbond>  (627) 


>  <PLP.part.metal>  (627) 


>  <PLP.part.nonpolar>  (627) 


>  <PLP.part.repulsive>  (627) 


>  <RMSD>  (627) 
0.428070490903

>  <Torsion>  (627) 
152.444048788

>  <TorsionO>  (627) 
39.0580871276

>  <TorsionR>  (627) 
168.497864085

>  <Version>  (627) 


>  <product>  (627) 
74|Compound_26|Compounds_3D_F|sdf|12|dock6|1

>  <rmsd>  (627) 
-1

$$$$
974|750794_1404|Aromatic_primary_amines_F|sdf|194|dock3|1
     RDKit          3D

 14 14  0  0  0  0  0  0  0  0999 V2000
  -13.6355  -18.1936    9.4145 C   0  0  0  0  0  0  0  0  0  0  0  0
  -13.2544  -19.4497   10.1732 C   0  0  0  0  0  0  0  0  0  0  0  0
  -11.8731  -19.3506   10.5383 O   0  0  0  0  0  0  0  0  0  0  0  0
  -11.6148  -18.5085   11.5823 C   0  0  0  0  0  0  0  0  0  0  0  0
  -12.3947  -18.2810   12.5004 O   0  0  0  0  0  0  0  0  0  0  0  0
  -10.3031  -17.8985   11.4902 C   0  0  0  0  0  0  0  0  0  0  0  0
   -9.1673  -18.4974   10.9931 C   0  0  0  0  0  0  0  0  0  0  0  0
   -8.1448  -17.6055   11.0758 O   0  0  0  0  0  0  0  0  0  0  0  0
   -8.7110  -16.4917   11.6237 C   0  0  0  0  0  0  0  0  0  0  0  0
   -9.9933  -16.6110   11.8915 N   0  0  0  0  0  0  0  0  0  0  0  0
   -7.9611  -15.3718   11.8549 N   0  0  0  0  0  0  0  0  0  0  0  0
   -8.5046  -14.1249   12.0676 C   0  0  0  0  0  0  0  0  0  0  0  0
   -9.6950  -13.8313   12.1035 O   0  0  0  0  0  0  0  0  0  0  0  0
   -7.4448  -13.0785   12.3021 C   0  0  0  0  0  0  0  0  0  0  0  0
  1  2  1  0
  2  3  1  0
  3  4  1  0
  4  5  2  0
  4  6  1  0
  6  7  2  0
  6 10  1  0
  7  8  1  0
  8  9  1  0
  9 10  2  0
  9 11  1  0
 11 12  1  0
 12 13  2  0
 12 14  1  0
M  END
>  <Gold.Gold.Protein.RotatedWaterAtoms>  (628) 


>  <Gold.Id.Protein>  (628) 


>  <Gold.PLP.Chemscore.CHOScore>  (628) 
0.0000

>  <Gold.PLP.Chemscore.Hbond>  (628) 
2.0000

>  <Gold.PLP.Chemscore.Internal.Correction>  (628) 
0.0053

>  <Gold.PLP.Chemscore.Metal>  (628) 
0.0000

>  <Gold.PLP.Fitness>  (628) 
36.8047

>  <Gold.PLP.PLP>  (628) 
-32.7996

>  <Gold.PLP.ligand.clash>  (628) 
0.0000

>  <Gold.PLP.ligand.torsion>  (628) 
1.0001

>  <Gold.PLP.part.buried>  (628) 
-6.5206

>  <Gold.PLP.part.hbond>  (628) 
-2.9156

>  <Gold.PLP.part.metal>  (628) 
0.0000

>  <Gold.PLP.part.nonpolar>  (628) 
-23.4080

>  <Gold.PLP.part.repulsive>  (628) 
0.3100

>  <Gold.Protein.RotatedAtoms>  (628) 


>  <Gold.Protein.RotatedTorsions>  (628) 


>  <Gold.Protein.RotatedWaterAtoms>  (628) 


>  <Gold.Version>  (628) 
5.3.0

>  <PLP.Chemscore.CHOScore>  (628) 


>  <PLP.Chemscore.Hbond>  (628) 


>  <PLP.Chemscore.Internal.Correction>  (628) 


>  <PLP.Chemscore.Metal>  (628) 


>  <PLP.Fitness>  (628) 


>  <PLP.PLP>  (628) 


>  <PLP.ligand.clash>  (628) 


>  <PLP.ligand.torsion>  (628) 


>  <PLP.part.buried>  (628) 


>  <PLP.part.hbond>  (628) 


>  <PLP.part.metal>  (628) 


>  <PLP.part.nonpolar>  (628) 


>  <PLP.part.repulsive>  (628) 


>  <RMSD>  (628) 
0.499949349045

>  <Torsion>  (628) 
159.973716791

>  <TorsionO>  (628) 
19.1052109979

>  <TorsionR>  (628) 
179.078927789

>  <Version>  (628) 


>  <product>  (628) 
74|Compound_26|Compounds_3D_F|sdf|12|dock6|1

>  <rmsd>  (628) 
-1

$$$$
1884|M3006_1781|Aromatic_primary_amines_F|sdf|361|dock3|1
     RDKit          3D

 31 34  0  0  0  0  0  0  0  0999 V2000
  -14.4210  -19.8971    8.7934 C   0  0  0  0  0  0  0  0  0  0  0  0
  -13.9762  -19.4927   10.1894 C   0  0  0  0  0  0  0  0  0  0  0  0
  -14.1356  -20.6409   11.1817 C   0  0  0  0  0  0  0  0  0  0  0  0
  -13.5197  -20.3070   12.5189 C   0  0  0  0  0  0  0  0  0  0  0  0
  -12.9307  -19.2724   12.7954 O   0  0  0  0  0  0  0  0  0  0  0  0
  -13.7110  -21.3451   13.3845 O   0  0  0  0  0  0  0  0  0  0  0  0
  -12.9425  -21.2698   14.5900 C   0  0  0  0  0  0  0  0  0  0  0  0
  -12.8849  -22.6189   15.2889 C   0  0  0  0  0  0  0  0  0  0  0  0
  -11.6552  -22.4172   16.1494 C   0  0  0  0  0  0  0  0  0  0  0  0
  -11.2420  -23.7410   16.7624 C   0  0  0  0  0  0  0  0  0  0  0  0
  -12.3024  -24.2223   17.5862 O   0  0  0  0  0  0  0  0  0  0  0  0
  -13.7888  -24.3384   16.9603 P   0  0  0  0  0  0  0  0  0  0  0  0
  -14.8775  -24.6795   17.9243 O   0  0  0  0  0  0  0  0  0  0  0  0
  -13.9839  -22.9641   16.1174 O   0  0  0  0  0  0  0  0  0  0  0  0
  -13.5991  -25.4435   15.8075 O   0  0  0  0  0  0  0  0  0  0  0  0
  -10.6922  -21.8161   15.2889 O   0  0  0  0  0  0  0  0  0  0  0  0
  -11.4338  -20.9664   14.3653 C   0  0  0  0  0  0  0  0  0  0  0  0
  -10.9052  -21.2017   13.0342 N   0  0  0  0  0  0  0  0  0  0  0  0
  -10.7814  -22.4114   12.4013 C   0  0  0  0  0  0  0  0  0  0  0  0
  -10.2640  -22.2918   11.1953 N   0  0  0  0  0  0  0  0  0  0  0  0
  -10.0274  -20.9476   11.0424 C   0  0  0  0  0  0  0  0  0  0  0  0
  -10.4203  -20.2487   12.1733 C   0  0  0  0  0  0  0  0  0  0  0  0
  -10.3338  -18.9216   12.3641 N   0  0  0  0  0  0  0  0  0  0  0  0
   -9.8057  -18.2730   11.3024 C   0  0  0  0  0  0  0  0  0  0  0  0
   -9.3808  -18.8370   10.1545 N   0  0  0  0  0  0  0  0  0  0  0  0
   -9.4895  -20.1691   10.0244 C   0  0  0  0  0  0  0  0  0  0  0  0
   -9.0330  -20.6622    8.8349 O   0  0  0  0  0  0  0  0  0  0  0  0
   -9.7222  -16.8901   11.4793 N   0  0  0  0  0  0  0  0  0  0  0  0
   -8.5796  -16.1798   11.7761 C   0  0  0  0  0  0  0  0  0  0  0  0
   -7.4445  -16.6221   11.9131 O   0  0  0  0  0  0  0  0  0  0  0  0
   -8.8524  -14.7024   11.8973 C   0  0  0  0  0  0  0  0  0  0  0  0
  1  2  1  0
  2  3  1  0
  3  4  1  0
  4  5  2  0
  4  6  1  0
  6  7  1  0
  7  8  1  0
  7 17  1  0
  8  9  1  0
  8 14  1  0
  9 10  1  0
  9 16  1  0
 10 11  1  0
 11 12  1  0
 12 13  2  0
 12 14  1  0
 12 15  1  0
 16 17  1  0
 17 18  1  0
 18 19  1  0
 18 22  1  0
 19 20  2  0
 20 21  1  0
 21 22  2  0
 21 26  1  0
 22 23  1  0
 23 24  2  0
 24 25  1  0
 24 28  1  0
 25 26  2  0
 26 27  1  0
 28 29  1  0
 29 30  2  0
 29 31  1  0
M  END
>  <Gold.Gold.Protein.RotatedWaterAtoms>  (629) 


>  <Gold.Id.Protein>  (629) 


>  <Gold.PLP.Chemscore.CHOScore>  (629) 
0.0000

>  <Gold.PLP.Chemscore.Hbond>  (629) 
1.2080

>  <Gold.PLP.Chemscore.Internal.Correction>  (629) 
0.1232

>  <Gold.PLP.Chemscore.Metal>  (629) 
0.0000

>  <Gold.PLP.Fitness>  (629) 
47.7145

>  <Gold.PLP.PLP>  (629) 
-46.0218

>  <Gold.PLP.ligand.clash>  (629) 
0.0000

>  <Gold.PLP.ligand.torsion>  (629) 
1.0272

>  <Gold.PLP.part.buried>  (629) 
-2.2958

>  <Gold.PLP.part.hbond>  (629) 
-4.0214

>  <Gold.PLP.part.metal>  (629) 
0.0000

>  <Gold.PLP.part.nonpolar>  (629) 
-41.4699

>  <Gold.PLP.part.repulsive>  (629) 
0.9524

>  <Gold.Protein.RotatedAtoms>  (629) 


>  <Gold.Protein.RotatedTorsions>  (629) 


>  <Gold.Protein.RotatedWaterAtoms>  (629) 


>  <Gold.Version>  (629) 
5.3.0

>  <PLP.Chemscore.CHOScore>  (629) 


>  <PLP.Chemscore.Hbond>  (629) 


>  <PLP.Chemscore.Internal.Correction>  (629) 


>  <PLP.Chemscore.Metal>  (629) 


>  <PLP.Fitness>  (629) 


>  <PLP.PLP>  (629) 


>  <PLP.ligand.clash>  (629) 


>  <PLP.ligand.torsion>  (629) 


>  <PLP.part.buried>  (629) 


>  <PLP.part.hbond>  (629) 


>  <PLP.part.metal>  (629) 


>  <PLP.part.nonpolar>  (629) 


>  <PLP.part.repulsive>  (629) 


>  <RMSD>  (629) 
0.291955871297

>  <Torsion>  (629) 
171.923704933

>  <TorsionO>  (629) 
6.03609353985

>  <TorsionR>  (629) 
177.959798473

>  <Version>  (629) 


>  <product>  (629) 
74|Compound_26|Compounds_3D_F|sdf|12|dock6|1

>  <rmsd>  (629) 
-1

$$$$
193|32168_281|Aromatic_primary_amines_F|sdf|39|dock6|1
     RDKit          3D

 23 25  0  0  0  0  0  0  0  0999 V2000
   -7.8439  -12.1461   11.8919 C   0  0  0  0  0  0  0  0  0  0  0  0
   -8.5691  -13.4472   11.6781 C   0  0  0  0  0  0  0  0  0  0  0  0
   -9.7886  -13.4981   11.5208 O   0  0  0  0  0  0  0  0  0  0  0  0
   -7.7264  -14.5390   11.7020 N   0  0  0  0  0  0  0  0  0  0  0  0
   -8.1889  -15.8197   11.5323 C   0  0  0  0  0  0  0  0  0  0  0  0
   -9.4747  -16.2039   11.8163 N   0  0  0  0  0  0  0  0  0  0  0  0
   -9.5964  -17.5375   11.5379 C   0  0  0  0  0  0  0  0  0  0  0  0
  -10.6643  -18.4283   11.6415 C   0  0  0  0  0  0  0  0  0  0  0  0
  -10.4051  -19.7586   11.2778 C   0  0  0  0  0  0  0  0  0  0  0  0
   -9.1530  -20.1507   10.7795 C   0  0  0  0  0  0  0  0  0  0  0  0
   -8.1017  -19.2294   10.6839 C   0  0  0  0  0  0  0  0  0  0  0  0
   -8.3349  -17.9032   11.0783 C   0  0  0  0  0  0  0  0  0  0  0  0
   -7.4773  -16.8281   11.0838 N   0  0  0  0  0  0  0  0  0  0  0  0
   -8.8530  -21.7658   10.2429 Cl  0  0  0  0  0  0  0  0  0  0  0  0
  -11.4669  -20.6323   11.3734 O   0  0  0  0  0  0  0  0  0  0  0  0
  -12.5262  -20.4408   10.5053 C   0  0  0  0  0  0  0  0  0  0  0  0
  -13.3188  -19.2846   10.5304 C   0  0  0  0  0  0  0  0  0  0  0  0
  -14.3665  -19.1344    9.6224 C   0  0  0  0  0  0  0  0  0  0  0  0
  -14.6219  -20.1279    8.6796 C   0  0  0  0  0  0  0  0  0  0  0  0
  -13.8238  -21.2756    8.6345 C   0  0  0  0  0  0  0  0  0  0  0  0
  -12.7674  -21.4342    9.5416 C   0  0  0  0  0  0  0  0  0  0  0  0
  -11.7588  -22.8458    9.4996 Cl  0  0  0  0  0  0  0  0  0  0  0  0
  -14.1988  -22.4584    7.4296 Cl  0  0  0  0  0  0  0  0  0  0  0  0
  1  2  1  0
  2  3  2  0
  2  4  1  0
  4  5  1  0
  5  6  1  0
  5 13  2  0
  6  7  1  0
  7  8  2  0
  7 12  1  0
  8  9  1  0
  9 10  2  0
  9 15  1  0
 10 11  1  0
 10 14  1  0
 11 12  2  0
 12 13  1  0
 15 16  1  0
 16 17  2  0
 16 21  1  0
 17 18  1  0
 18 19  2  0
 19 20  1  0
 20 21  2  0
 20 23  1  0
 21 22  1  0
M  END
>  <Gold.Gold.Protein.RotatedWaterAtoms>  (630) 


>  <Gold.Id.Protein>  (630) 


>  <Gold.PLP.Chemscore.CHOScore>  (630) 
0.0000

>  <Gold.PLP.Chemscore.Hbond>  (630) 
1.0000

>  <Gold.PLP.Chemscore.Internal.Correction>  (630) 
0.0086

>  <Gold.PLP.Chemscore.Metal>  (630) 
0.0000

>  <Gold.PLP.Fitness>  (630) 
50.7139

>  <Gold.PLP.PLP>  (630) 
-48.1706

>  <Gold.PLP.ligand.clash>  (630) 
0.0000

>  <Gold.PLP.ligand.torsion>  (630) 
0.2327

>  <Gold.PLP.part.buried>  (630) 
-6.5205

>  <Gold.PLP.part.hbond>  (630) 
-2.0000

>  <Gold.PLP.part.metal>  (630) 
0.0000

>  <Gold.PLP.part.nonpolar>  (630) 
-39.3857

>  <Gold.PLP.part.repulsive>  (630) 
0.3298

>  <Gold.Protein.RotatedAtoms>  (630) 


>  <Gold.Protein.RotatedTorsions>  (630) 


>  <Gold.Protein.RotatedWaterAtoms>  (630) 


>  <Gold.Version>  (630) 
5.3.0

>  <PLP.Chemscore.CHOScore>  (630) 


>  <PLP.Chemscore.Hbond>  (630) 


>  <PLP.Chemscore.Internal.Correction>  (630) 


>  <PLP.Chemscore.Metal>  (630) 


>  <PLP.Fitness>  (630) 


>  <PLP.PLP>  (630) 


>  <PLP.ligand.clash>  (630) 


>  <PLP.ligand.torsion>  (630) 


>  <PLP.part.buried>  (630) 


>  <PLP.part.hbond>  (630) 


>  <PLP.part.metal>  (630) 


>  <PLP.part.nonpolar>  (630) 


>  <PLP.part.repulsive>  (630) 


>  <RMSD>  (630) 
0.439733510035

>  <Torsion>  (630) 
177.672185574

>  <TorsionO>  (630) 
4.31728583372

>  <TorsionR>  (630) 
173.35489974

>  <Version>  (630) 


>  <product>  (630) 
74|Compound_26|Compounds_3D_F|sdf|12|dock6|1

>  <rmsd>  (630) 
-1

$$$$
18|Compound_8|Compounds_3D_F|sdf|4|dock8|1
     RDKit          3D

  8  7  0  0  0  0  0  0  0  0999 V2000
   -8.2561  -13.5192   13.0991 O   0  0  0  0  0  0  0  0  0  0  0  0
   -7.3469  -14.3333   12.3562 C   0  0  0  0  0  0  0  0  0  0  0  0
   -5.9106  -13.9826   12.7479 C   0  0  0  0  0  0  0  0  0  0  0  0
   -4.9779  -14.7759   11.9429 N   0  0  0  0  0  0  0  0  0  0  0  0
   -4.9763  -16.1203   12.0419 C   0  0  0  0  0  0  0  0  0  0  0  0
   -5.7478  -16.6722   12.7968 O   0  0  0  0  0  0  0  0  0  0  0  0
   -3.9768  -16.9695   11.1800 B   0  0  0  0  0  0  0  0  0  0  0  0
   -5.6623  -12.4938   12.4971 C   0  0  0  0  0  0  0  0  0  0  0  0
  1  2  1  0
  2  3  1  0
  3  4  1  0
  3  8  1  0
  4  5  1  0
  5  6  2  0
  5  7  1  0
M  END
>  <Gold.Gold.Protein.RotatedWaterAtoms>  (631) 


>  <Gold.Id.Protein>  (631) 


>  <Gold.PLP.Chemscore.CHOScore>  (631) 
0.0000

>  <Gold.PLP.Chemscore.Hbond>  (631) 
1.9425

>  <Gold.PLP.Chemscore.Internal.Correction>  (631) 
0.0000

>  <Gold.PLP.Chemscore.Metal>  (631) 
0.0000

>  <Gold.PLP.Fitness>  (631) 
30.4807

>  <Gold.PLP.PLP>  (631) 
-24.6743

>  <Gold.PLP.ligand.clash>  (631) 
0.0000

>  <Gold.PLP.ligand.torsion>  (631) 
0.0106

>  <Gold.PLP.part.buried>  (631) 
-5.5148

>  <Gold.PLP.part.hbond>  (631) 
-2.6584

>  <Gold.PLP.part.metal>  (631) 
0.0000

>  <Gold.PLP.part.nonpolar>  (631) 
-17.4144

>  <Gold.PLP.part.repulsive>  (631) 
0.1373

>  <Gold.Protein.RotatedAtoms>  (631) 


>  <Gold.Protein.RotatedTorsions>  (631) 


>  <Gold.Protein.RotatedWaterAtoms>  (631) 


>  <Gold.Version>  (631) 
5.3.0

>  <PLP.Chemscore.CHOScore>  (631) 


>  <PLP.Chemscore.Hbond>  (631) 


>  <PLP.Chemscore.Internal.Correction>  (631) 


>  <PLP.Chemscore.Metal>  (631) 


>  <PLP.Fitness>  (631) 


>  <PLP.PLP>  (631) 


>  <PLP.ligand.clash>  (631) 


>  <PLP.ligand.torsion>  (631) 


>  <PLP.part.buried>  (631) 


>  <PLP.part.hbond>  (631) 


>  <PLP.part.metal>  (631) 


>  <PLP.part.nonpolar>  (631) 


>  <PLP.part.repulsive>  (631) 


>  <Version>  (631) 


$$$$
94|664022_40|Aromatic_carboxylic_acids_F|sdf|24|dock1|1
     RDKit          3D

 12 12  0  0  0  0  0  0  0  0999 V2000
   -8.2596  -17.1212   11.4595 C   0  0  0  0  0  0  0  0  0  0  0  0
   -7.6366  -15.8367   11.6688 N   0  0  0  0  0  0  0  0  0  0  0  0
   -8.3409  -14.6553   11.5719 C   0  0  0  0  0  0  0  0  0  0  0  0
   -9.5296  -14.5547   11.2978 O   0  0  0  0  0  0  0  0  0  0  0  0
   -7.5420  -13.4431   11.8503 C   0  0  0  0  0  0  0  0  0  0  0  0
   -8.1627  -12.1983   11.6738 C   0  0  0  0  0  0  0  0  0  0  0  0
   -7.4390  -11.0301   11.9055 C   0  0  0  0  0  0  0  0  0  0  0  0
   -6.1069  -11.0910   12.3103 C   0  0  0  0  0  0  0  0  0  0  0  0
   -5.4897  -12.3324   12.4853 C   0  0  0  0  0  0  0  0  0  0  0  0
   -6.2035  -13.5136   12.2549 C   0  0  0  0  0  0  0  0  0  0  0  0
   -5.3062  -15.1564   12.5638 Br  0  0  0  0  0  0  0  0  0  0  0  0
   -8.1960   -9.5005   11.6887 Cl  0  0  0  0  0  0  0  0  0  0  0  0
  1  2  1  0
  2  3  1  0
  3  4  2  0
  3  5  1  0
  5  6  2  0
  5 10  1  0
  6  7  1  0
  7  8  2  0
  7 12  1  0
  8  9  1  0
  9 10  2  0
 10 11  1  0
M  END
>  <Gold.Gold.Protein.RotatedWaterAtoms>  (632) 


>  <Gold.Id.Protein>  (632) 


>  <Gold.PLP.Chemscore.CHOScore>  (632) 
0.0000

>  <Gold.PLP.Chemscore.Hbond>  (632) 
0.4160

>  <Gold.PLP.Chemscore.Internal.Correction>  (632) 
0.0004

>  <Gold.PLP.Chemscore.Metal>  (632) 
0.0000

>  <Gold.PLP.Fitness>  (632) 
48.9046

>  <Gold.PLP.PLP>  (632) 
-47.6744

>  <Gold.PLP.ligand.clash>  (632) 
0.0000

>  <Gold.PLP.ligand.torsion>  (632) 
0.0091

>  <Gold.PLP.part.buried>  (632) 
-7.3578

>  <Gold.PLP.part.hbond>  (632) 
-0.5127

>  <Gold.PLP.part.metal>  (632) 
0.0000

>  <Gold.PLP.part.nonpolar>  (632) 
-40.3098

>  <Gold.PLP.part.repulsive>  (632) 
0.1684

>  <Gold.Protein.RotatedAtoms>  (632) 


>  <Gold.Protein.RotatedTorsions>  (632) 


>  <Gold.Protein.RotatedWaterAtoms>  (632) 


>  <Gold.Version>  (632) 
5.3.0

>  <PLP.Chemscore.CHOScore>  (632) 


>  <PLP.Chemscore.Hbond>  (632) 


>  <PLP.Chemscore.Internal.Correction>  (632) 


>  <PLP.Chemscore.Metal>  (632) 


>  <PLP.Fitness>  (632) 


>  <PLP.PLP>  (632) 


>  <PLP.ligand.clash>  (632) 


>  <PLP.ligand.torsion>  (632) 


>  <PLP.part.buried>  (632) 


>  <PLP.part.hbond>  (632) 


>  <PLP.part.metal>  (632) 


>  <PLP.part.nonpolar>  (632) 


>  <PLP.part.repulsive>  (632) 


>  <RMSD>  (632) 
0.30972197429

>  <Torsion>  (632) 
172.929186758

>  <TorsionO>  (632) 
24.4968065243

>  <TorsionR>  (632) 
162.574006718

>  <Version>  (632) 


>  <product>  (632) 
18|Compound_8|Compounds_3D_F|sdf|4|dock8|1

>  <rmsd>  (632) 
-1

$$$$
110|565385_49|Aromatic_carboxylic_acids_F|sdf|29|dock1|1
     RDKit          3D

 13 13  0  0  0  0  0  0  0  0999 V2000
  -10.1118  -17.9021   11.6320 C   0  0  0  0  0  0  0  0  0  0  0  0
   -9.7537  -16.5043   11.6546 N   0  0  0  0  0  0  0  0  0  0  0  0
   -8.4330  -16.1187   11.7930 C   0  0  0  0  0  0  0  0  0  0  0  0
   -7.5159  -16.9298   11.9008 O   0  0  0  0  0  0  0  0  0  0  0  0
   -8.1234  -14.6552   11.8105 C   0  0  0  0  0  0  0  0  0  0  0  0
   -9.0636  -13.6551   11.5375 C   0  0  0  0  0  0  0  0  0  0  0  0
   -8.6966  -12.3009   11.5726 C   0  0  0  0  0  0  0  0  0  0  0  0
   -7.3879  -11.9195   11.8809 C   0  0  0  0  0  0  0  0  0  0  0  0
   -6.4486  -12.9235   12.1551 C   0  0  0  0  0  0  0  0  0  0  0  0
   -6.8098  -14.2750   12.1207 C   0  0  0  0  0  0  0  0  0  0  0  0
   -4.6444  -12.5025   12.5849 Br  0  0  0  0  0  0  0  0  0  0  0  0
   -6.9476  -10.6242   11.9372 O   0  0  0  0  0  0  0  0  0  0  0  0
   -7.9020   -9.5910   11.7256 C   0  0  0  0  0  0  0  0  0  0  0  0
  1  2  1  0
  2  3  1  0
  3  4  2  0
  3  5  1  0
  5  6  2  0
  5 10  1  0
  6  7  1  0
  7  8  2  0
  8  9  1  0
  8 12  1  0
  9 10  2  0
  9 11  1  0
 12 13  1  0
M  END
>  <Gold.Gold.Protein.RotatedWaterAtoms>  (633) 


>  <Gold.Id.Protein>  (633) 


>  <Gold.PLP.Chemscore.CHOScore>  (633) 
0.0000

>  <Gold.PLP.Chemscore.Hbond>  (633) 
1.0000

>  <Gold.PLP.Chemscore.Internal.Correction>  (633) 
0.0000

>  <Gold.PLP.Chemscore.Metal>  (633) 
0.0000

>  <Gold.PLP.Fitness>  (633) 
43.9775

>  <Gold.PLP.PLP>  (633) 
-41.0517

>  <Gold.PLP.ligand.clash>  (633) 
0.0000

>  <Gold.PLP.ligand.torsion>  (633) 
0.0371

>  <Gold.PLP.part.buried>  (633) 
-3.7367

>  <Gold.PLP.part.hbond>  (633) 
-1.0000

>  <Gold.PLP.part.metal>  (633) 
0.0000

>  <Gold.PLP.part.nonpolar>  (633) 
-36.7483

>  <Gold.PLP.part.repulsive>  (633) 
0.4054

>  <Gold.Protein.RotatedAtoms>  (633) 


>  <Gold.Protein.RotatedTorsions>  (633) 


>  <Gold.Protein.RotatedWaterAtoms>  (633) 


>  <Gold.Version>  (633) 
5.3.0

>  <PLP.Chemscore.CHOScore>  (633) 


>  <PLP.Chemscore.Hbond>  (633) 


>  <PLP.Chemscore.Internal.Correction>  (633) 


>  <PLP.Chemscore.Metal>  (633) 


>  <PLP.Fitness>  (633) 


>  <PLP.PLP>  (633) 


>  <PLP.ligand.clash>  (633) 


>  <PLP.ligand.torsion>  (633) 


>  <PLP.part.buried>  (633) 


>  <PLP.part.hbond>  (633) 


>  <PLP.part.metal>  (633) 


>  <PLP.part.nonpolar>  (633) 


>  <PLP.part.repulsive>  (633) 


>  <RMSD>  (633) 
0.319376411377

>  <Torsion>  (633) 
169.460450784

>  <TorsionO>  (633) 
9.7963905484

>  <TorsionR>  (633) 
179.256841332

>  <Version>  (633) 


>  <product>  (633) 
18|Compound_8|Compounds_3D_F|sdf|4|dock8|1

>  <rmsd>  (633) 
-1

$$$$
128|137677_56|Aromatic_carboxylic_acids_F|sdf|33|dock1|1
     RDKit          3D

 11 11  0  0  0  0  0  0  0  0999 V2000
   -8.6116  -16.1544   11.8887 C   0  0  0  0  0  0  0  0  0  0  0  0
   -7.9978  -14.8484   11.9215 N   0  0  0  0  0  0  0  0  0  0  0  0
   -8.7778  -13.7008   11.8756 C   0  0  0  0  0  0  0  0  0  0  0  0
  -10.0002  -13.7896   11.8139 O   0  0  0  0  0  0  0  0  0  0  0  0
   -8.0808  -12.3609   11.9017 C   0  0  0  0  0  0  0  0  0  0  0  0
   -8.7916  -11.1851   11.5813 C   0  0  0  0  0  0  0  0  0  0  0  0
   -8.1781   -9.9267   11.5989 C   0  0  0  0  0  0  0  0  0  0  0  0
   -6.8391   -9.8089   11.9369 C   0  0  0  0  0  0  0  0  0  0  0  0
   -6.1124  -10.9502   12.2575 C   0  0  0  0  0  0  0  0  0  0  0  0
   -6.7171  -12.2196   12.2428 C   0  0  0  0  0  0  0  0  0  0  0  0
   -5.5419  -13.6455   12.7121 Br  0  0  0  0  0  0  0  0  0  0  0  0
  1  2  1  0
  2  3  1  0
  3  4  2  0
  3  5  1  0
  5  6  2  0
  5 10  1  0
  6  7  1  0
  7  8  2  0
  8  9  1  0
  9 10  2  0
 10 11  1  0
M  END
>  <Gold.Gold.Protein.RotatedWaterAtoms>  (634) 


>  <Gold.Id.Protein>  (634) 


>  <Gold.PLP.Chemscore.CHOScore>  (634) 
0.0000

>  <Gold.PLP.Chemscore.Hbond>  (634) 
1.0000

>  <Gold.PLP.Chemscore.Internal.Correction>  (634) 
0.0000

>  <Gold.PLP.Chemscore.Metal>  (634) 
0.0000

>  <Gold.PLP.Fitness>  (634) 
45.2899

>  <Gold.PLP.PLP>  (634) 
-42.4444

>  <Gold.PLP.ligand.clash>  (634) 
0.0000

>  <Gold.PLP.ligand.torsion>  (634) 
0.0772

>  <Gold.PLP.part.buried>  (634) 
-6.4690

>  <Gold.PLP.part.hbond>  (634) 
-0.6863

>  <Gold.PLP.part.metal>  (634) 
0.0000

>  <Gold.PLP.part.nonpolar>  (634) 
-34.8280

>  <Gold.PLP.part.repulsive>  (634) 
0.1963

>  <Gold.Protein.RotatedAtoms>  (634) 


>  <Gold.Protein.RotatedTorsions>  (634) 


>  <Gold.Protein.RotatedWaterAtoms>  (634) 


>  <Gold.Version>  (634) 
5.3.0

>  <PLP.Chemscore.CHOScore>  (634) 


>  <PLP.Chemscore.Hbond>  (634) 


>  <PLP.Chemscore.Internal.Correction>  (634) 


>  <PLP.Chemscore.Metal>  (634) 


>  <PLP.Fitness>  (634) 


>  <PLP.PLP>  (634) 


>  <PLP.ligand.clash>  (634) 


>  <PLP.ligand.torsion>  (634) 


>  <PLP.part.buried>  (634) 


>  <PLP.part.hbond>  (634) 


>  <PLP.part.metal>  (634) 


>  <PLP.part.nonpolar>  (634) 


>  <PLP.part.repulsive>  (634) 


>  <RMSD>  (634) 
0.428070490903

>  <Torsion>  (634) 
152.444048788

>  <TorsionO>  (634) 
39.0580871276

>  <TorsionR>  (634) 
168.497864085

>  <Version>  (634) 


>  <product>  (634) 
18|Compound_8|Compounds_3D_F|sdf|4|dock8|1

>  <rmsd>  (634) 
-1

$$$$
974|750794_1404|Aromatic_primary_amines_F|sdf|194|dock3|1
     RDKit          3D

 14 14  0  0  0  0  0  0  0  0999 V2000
  -13.6355  -18.1936    9.4145 C   0  0  0  0  0  0  0  0  0  0  0  0
  -13.2544  -19.4497   10.1732 C   0  0  0  0  0  0  0  0  0  0  0  0
  -11.8731  -19.3506   10.5383 O   0  0  0  0  0  0  0  0  0  0  0  0
  -11.6148  -18.5085   11.5823 C   0  0  0  0  0  0  0  0  0  0  0  0
  -12.3947  -18.2810   12.5004 O   0  0  0  0  0  0  0  0  0  0  0  0
  -10.3031  -17.8985   11.4902 C   0  0  0  0  0  0  0  0  0  0  0  0
   -9.1673  -18.4974   10.9931 C   0  0  0  0  0  0  0  0  0  0  0  0
   -8.1448  -17.6055   11.0758 O   0  0  0  0  0  0  0  0  0  0  0  0
   -8.7110  -16.4917   11.6237 C   0  0  0  0  0  0  0  0  0  0  0  0
   -9.9933  -16.6110   11.8915 N   0  0  0  0  0  0  0  0  0  0  0  0
   -7.9611  -15.3718   11.8549 N   0  0  0  0  0  0  0  0  0  0  0  0
   -8.5046  -14.1249   12.0676 C   0  0  0  0  0  0  0  0  0  0  0  0
   -9.6950  -13.8313   12.1035 O   0  0  0  0  0  0  0  0  0  0  0  0
   -7.4448  -13.0785   12.3021 C   0  0  0  0  0  0  0  0  0  0  0  0
  1  2  1  0
  2  3  1  0
  3  4  1  0
  4  5  2  0
  4  6  1  0
  6  7  2  0
  6 10  1  0
  7  8  1  0
  8  9  1  0
  9 10  2  0
  9 11  1  0
 11 12  1  0
 12 13  2  0
 12 14  1  0
M  END
>  <Gold.Gold.Protein.RotatedWaterAtoms>  (635) 


>  <Gold.Id.Protein>  (635) 


>  <Gold.PLP.Chemscore.CHOScore>  (635) 
0.0000

>  <Gold.PLP.Chemscore.Hbond>  (635) 
2.0000

>  <Gold.PLP.Chemscore.Internal.Correction>  (635) 
0.0053

>  <Gold.PLP.Chemscore.Metal>  (635) 
0.0000

>  <Gold.PLP.Fitness>  (635) 
36.8047

>  <Gold.PLP.PLP>  (635) 
-32.7996

>  <Gold.PLP.ligand.clash>  (635) 
0.0000

>  <Gold.PLP.ligand.torsion>  (635) 
1.0001

>  <Gold.PLP.part.buried>  (635) 
-6.5206

>  <Gold.PLP.part.hbond>  (635) 
-2.9156

>  <Gold.PLP.part.metal>  (635) 
0.0000

>  <Gold.PLP.part.nonpolar>  (635) 
-23.4080

>  <Gold.PLP.part.repulsive>  (635) 
0.3100

>  <Gold.Protein.RotatedAtoms>  (635) 


>  <Gold.Protein.RotatedTorsions>  (635) 


>  <Gold.Protein.RotatedWaterAtoms>  (635) 


>  <Gold.Version>  (635) 
5.3.0

>  <PLP.Chemscore.CHOScore>  (635) 


>  <PLP.Chemscore.Hbond>  (635) 


>  <PLP.Chemscore.Internal.Correction>  (635) 


>  <PLP.Chemscore.Metal>  (635) 


>  <PLP.Fitness>  (635) 


>  <PLP.PLP>  (635) 


>  <PLP.ligand.clash>  (635) 


>  <PLP.ligand.torsion>  (635) 


>  <PLP.part.buried>  (635) 


>  <PLP.part.hbond>  (635) 


>  <PLP.part.metal>  (635) 


>  <PLP.part.nonpolar>  (635) 


>  <PLP.part.repulsive>  (635) 


>  <RMSD>  (635) 
0.499949349045

>  <Torsion>  (635) 
159.973716791

>  <TorsionO>  (635) 
19.1052109979

>  <TorsionR>  (635) 
179.078927789

>  <Version>  (635) 


>  <product>  (635) 
18|Compound_8|Compounds_3D_F|sdf|4|dock8|1

>  <rmsd>  (635) 
-1

$$$$
1884|M3006_1781|Aromatic_primary_amines_F|sdf|361|dock3|1
     RDKit          3D

 31 34  0  0  0  0  0  0  0  0999 V2000
  -14.4210  -19.8971    8.7934 C   0  0  0  0  0  0  0  0  0  0  0  0
  -13.9762  -19.4927   10.1894 C   0  0  0  0  0  0  0  0  0  0  0  0
  -14.1356  -20.6409   11.1817 C   0  0  0  0  0  0  0  0  0  0  0  0
  -13.5197  -20.3070   12.5189 C   0  0  0  0  0  0  0  0  0  0  0  0
  -12.9307  -19.2724   12.7954 O   0  0  0  0  0  0  0  0  0  0  0  0
  -13.7110  -21.3451   13.3845 O   0  0  0  0  0  0  0  0  0  0  0  0
  -12.9425  -21.2698   14.5900 C   0  0  0  0  0  0  0  0  0  0  0  0
  -12.8849  -22.6189   15.2889 C   0  0  0  0  0  0  0  0  0  0  0  0
  -11.6552  -22.4172   16.1494 C   0  0  0  0  0  0  0  0  0  0  0  0
  -11.2420  -23.7410   16.7624 C   0  0  0  0  0  0  0  0  0  0  0  0
  -12.3024  -24.2223   17.5862 O   0  0  0  0  0  0  0  0  0  0  0  0
  -13.7888  -24.3384   16.9603 P   0  0  0  0  0  0  0  0  0  0  0  0
  -14.8775  -24.6795   17.9243 O   0  0  0  0  0  0  0  0  0  0  0  0
  -13.9839  -22.9641   16.1174 O   0  0  0  0  0  0  0  0  0  0  0  0
  -13.5991  -25.4435   15.8075 O   0  0  0  0  0  0  0  0  0  0  0  0
  -10.6922  -21.8161   15.2889 O   0  0  0  0  0  0  0  0  0  0  0  0
  -11.4338  -20.9664   14.3653 C   0  0  0  0  0  0  0  0  0  0  0  0
  -10.9052  -21.2017   13.0342 N   0  0  0  0  0  0  0  0  0  0  0  0
  -10.7814  -22.4114   12.4013 C   0  0  0  0  0  0  0  0  0  0  0  0
  -10.2640  -22.2918   11.1953 N   0  0  0  0  0  0  0  0  0  0  0  0
  -10.0274  -20.9476   11.0424 C   0  0  0  0  0  0  0  0  0  0  0  0
  -10.4203  -20.2487   12.1733 C   0  0  0  0  0  0  0  0  0  0  0  0
  -10.3338  -18.9216   12.3641 N   0  0  0  0  0  0  0  0  0  0  0  0
   -9.8057  -18.2730   11.3024 C   0  0  0  0  0  0  0  0  0  0  0  0
   -9.3808  -18.8370   10.1545 N   0  0  0  0  0  0  0  0  0  0  0  0
   -9.4895  -20.1691   10.0244 C   0  0  0  0  0  0  0  0  0  0  0  0
   -9.0330  -20.6622    8.8349 O   0  0  0  0  0  0  0  0  0  0  0  0
   -9.7222  -16.8901   11.4793 N   0  0  0  0  0  0  0  0  0  0  0  0
   -8.5796  -16.1798   11.7761 C   0  0  0  0  0  0  0  0  0  0  0  0
   -7.4445  -16.6221   11.9131 O   0  0  0  0  0  0  0  0  0  0  0  0
   -8.8524  -14.7024   11.8973 C   0  0  0  0  0  0  0  0  0  0  0  0
  1  2  1  0
  2  3  1  0
  3  4  1  0
  4  5  2  0
  4  6  1  0
  6  7  1  0
  7  8  1  0
  7 17  1  0
  8  9  1  0
  8 14  1  0
  9 10  1  0
  9 16  1  0
 10 11  1  0
 11 12  1  0
 12 13  2  0
 12 14  1  0
 12 15  1  0
 16 17  1  0
 17 18  1  0
 18 19  1  0
 18 22  1  0
 19 20  2  0
 20 21  1  0
 21 22  2  0
 21 26  1  0
 22 23  1  0
 23 24  2  0
 24 25  1  0
 24 28  1  0
 25 26  2  0
 26 27  1  0
 28 29  1  0
 29 30  2  0
 29 31  1  0
M  END
>  <Gold.Gold.Protein.RotatedWaterAtoms>  (636) 


>  <Gold.Id.Protein>  (636) 


>  <Gold.PLP.Chemscore.CHOScore>  (636) 
0.0000

>  <Gold.PLP.Chemscore.Hbond>  (636) 
1.2080

>  <Gold.PLP.Chemscore.Internal.Correction>  (636) 
0.1232

>  <Gold.PLP.Chemscore.Metal>  (636) 
0.0000

>  <Gold.PLP.Fitness>  (636) 
47.7145

>  <Gold.PLP.PLP>  (636) 
-46.0218

>  <Gold.PLP.ligand.clash>  (636) 
0.0000

>  <Gold.PLP.ligand.torsion>  (636) 
1.0272

>  <Gold.PLP.part.buried>  (636) 
-2.2958

>  <Gold.PLP.part.hbond>  (636) 
-4.0214

>  <Gold.PLP.part.metal>  (636) 
0.0000

>  <Gold.PLP.part.nonpolar>  (636) 
-41.4699

>  <Gold.PLP.part.repulsive>  (636) 
0.9524

>  <Gold.Protein.RotatedAtoms>  (636) 


>  <Gold.Protein.RotatedTorsions>  (636) 


>  <Gold.Protein.RotatedWaterAtoms>  (636) 


>  <Gold.Version>  (636) 
5.3.0

>  <PLP.Chemscore.CHOScore>  (636) 


>  <PLP.Chemscore.Hbond>  (636) 


>  <PLP.Chemscore.Internal.Correction>  (636) 


>  <PLP.Chemscore.Metal>  (636) 


>  <PLP.Fitness>  (636) 


>  <PLP.PLP>  (636) 


>  <PLP.ligand.clash>  (636) 


>  <PLP.ligand.torsion>  (636) 


>  <PLP.part.buried>  (636) 


>  <PLP.part.hbond>  (636) 


>  <PLP.part.metal>  (636) 


>  <PLP.part.nonpolar>  (636) 


>  <PLP.part.repulsive>  (636) 


>  <RMSD>  (636) 
0.291955871297

>  <Torsion>  (636) 
171.923704933

>  <TorsionO>  (636) 
6.03609353985

>  <TorsionR>  (636) 
177.959798473

>  <Version>  (636) 


>  <product>  (636) 
18|Compound_8|Compounds_3D_F|sdf|4|dock8|1

>  <rmsd>  (636) 
-1

$$$$
193|32168_281|Aromatic_primary_amines_F|sdf|39|dock6|1
     RDKit          3D

 23 25  0  0  0  0  0  0  0  0999 V2000
   -7.8439  -12.1461   11.8919 C   0  0  0  0  0  0  0  0  0  0  0  0
   -8.5691  -13.4472   11.6781 C   0  0  0  0  0  0  0  0  0  0  0  0
   -9.7886  -13.4981   11.5208 O   0  0  0  0  0  0  0  0  0  0  0  0
   -7.7264  -14.5390   11.7020 N   0  0  0  0  0  0  0  0  0  0  0  0
   -8.1889  -15.8197   11.5323 C   0  0  0  0  0  0  0  0  0  0  0  0
   -9.4747  -16.2039   11.8163 N   0  0  0  0  0  0  0  0  0  0  0  0
   -9.5964  -17.5375   11.5379 C   0  0  0  0  0  0  0  0  0  0  0  0
  -10.6643  -18.4283   11.6415 C   0  0  0  0  0  0  0  0  0  0  0  0
  -10.4051  -19.7586   11.2778 C   0  0  0  0  0  0  0  0  0  0  0  0
   -9.1530  -20.1507   10.7795 C   0  0  0  0  0  0  0  0  0  0  0  0
   -8.1017  -19.2294   10.6839 C   0  0  0  0  0  0  0  0  0  0  0  0
   -8.3349  -17.9032   11.0783 C   0  0  0  0  0  0  0  0  0  0  0  0
   -7.4773  -16.8281   11.0838 N   0  0  0  0  0  0  0  0  0  0  0  0
   -8.8530  -21.7658   10.2429 Cl  0  0  0  0  0  0  0  0  0  0  0  0
  -11.4669  -20.6323   11.3734 O   0  0  0  0  0  0  0  0  0  0  0  0
  -12.5262  -20.4408   10.5053 C   0  0  0  0  0  0  0  0  0  0  0  0
  -13.3188  -19.2846   10.5304 C   0  0  0  0  0  0  0  0  0  0  0  0
  -14.3665  -19.1344    9.6224 C   0  0  0  0  0  0  0  0  0  0  0  0
  -14.6219  -20.1279    8.6796 C   0  0  0  0  0  0  0  0  0  0  0  0
  -13.8238  -21.2756    8.6345 C   0  0  0  0  0  0  0  0  0  0  0  0
  -12.7674  -21.4342    9.5416 C   0  0  0  0  0  0  0  0  0  0  0  0
  -11.7588  -22.8458    9.4996 Cl  0  0  0  0  0  0  0  0  0  0  0  0
  -14.1988  -22.4584    7.4296 Cl  0  0  0  0  0  0  0  0  0  0  0  0
  1  2  1  0
  2  3  2  0
  2  4  1  0
  4  5  1  0
  5  6  1  0
  5 13  2  0
  6  7  1  0
  7  8  2  0
  7 12  1  0
  8  9  1  0
  9 10  2  0
  9 15  1  0
 10 11  1  0
 10 14  1  0
 11 12  2  0
 12 13  1  0
 15 16  1  0
 16 17  2  0
 16 21  1  0
 17 18  1  0
 18 19  2  0
 19 20  1  0
 20 21  2  0
 20 23  1  0
 21 22  1  0
M  END
>  <Gold.Gold.Protein.RotatedWaterAtoms>  (637) 


>  <Gold.Id.Protein>  (637) 


>  <Gold.PLP.Chemscore.CHOScore>  (637) 
0.0000

>  <Gold.PLP.Chemscore.Hbond>  (637) 
1.0000

>  <Gold.PLP.Chemscore.Internal.Correction>  (637) 
0.0086

>  <Gold.PLP.Chemscore.Metal>  (637) 
0.0000

>  <Gold.PLP.Fitness>  (637) 
50.7139

>  <Gold.PLP.PLP>  (637) 
-48.1706

>  <Gold.PLP.ligand.clash>  (637) 
0.0000

>  <Gold.PLP.ligand.torsion>  (637) 
0.2327

>  <Gold.PLP.part.buried>  (637) 
-6.5205

>  <Gold.PLP.part.hbond>  (637) 
-2.0000

>  <Gold.PLP.part.metal>  (637) 
0.0000

>  <Gold.PLP.part.nonpolar>  (637) 
-39.3857

>  <Gold.PLP.part.repulsive>  (637) 
0.3298

>  <Gold.Protein.RotatedAtoms>  (637) 


>  <Gold.Protein.RotatedTorsions>  (637) 


>  <Gold.Protein.RotatedWaterAtoms>  (637) 


>  <Gold.Version>  (637) 
5.3.0

>  <PLP.Chemscore.CHOScore>  (637) 


>  <PLP.Chemscore.Hbond>  (637) 


>  <PLP.Chemscore.Internal.Correction>  (637) 


>  <PLP.Chemscore.Metal>  (637) 


>  <PLP.Fitness>  (637) 


>  <PLP.PLP>  (637) 


>  <PLP.ligand.clash>  (637) 


>  <PLP.ligand.torsion>  (637) 


>  <PLP.part.buried>  (637) 


>  <PLP.part.hbond>  (637) 


>  <PLP.part.metal>  (637) 


>  <PLP.part.nonpolar>  (637) 


>  <PLP.part.repulsive>  (637) 


>  <RMSD>  (637) 
0.439733510035

>  <Torsion>  (637) 
177.672185574

>  <TorsionO>  (637) 
4.31728583372

>  <TorsionR>  (637) 
173.35489974

>  <Version>  (637) 


>  <product>  (637) 
18|Compound_8|Compounds_3D_F|sdf|4|dock8|1

>  <rmsd>  (637) 
-1

$$$$
43|Compound_21|Compounds_3D_F|sdf|8|dock6|1
     RDKit          3D

 10  9  0  0  0  0  0  0  0  0999 V2000
   -5.2998  -15.3126    9.3572 O   0  0  0  0  0  0  0  0  0  0  0  0
   -5.7925  -16.2380   10.3277 C   0  0  0  0  0  0  0  0  0  0  0  0
   -4.9117  -16.1847   11.5771 C   0  0  0  0  0  0  0  0  0  0  0  0
   -4.5885  -14.7905   11.8880 N   0  0  0  0  0  0  0  0  0  0  0  0
   -5.5752  -13.9157   12.1667 C   0  0  0  0  0  0  0  0  0  0  0  0
   -6.7309  -14.2833   12.1597 O   0  0  0  0  0  0  0  0  0  0  0  0
   -5.2288  -12.4209   12.5000 B   0  0  0  0  0  0  0  0  0  0  0  0
   -5.6601  -16.8098   12.7559 C   0  0  0  0  0  0  0  0  0  0  0  0
   -3.6193  -16.9639   11.3230 C   0  0  0  0  0  0  0  0  0  0  0  0
   -2.8660  -16.3165   10.2956 O   0  0  0  0  0  0  0  0  0  0  0  0
  1  2  1  0
  2  3  1  0
  3  4  1  0
  3  8  1  0
  3  9  1  0
  4  5  1  0
  5  6  2  0
  5  7  1  0
  9 10  1  0
M  END
>  <Gold.Gold.Protein.RotatedWaterAtoms>  (638) 


>  <Gold.Id.Protein>  (638) 


>  <Gold.PLP.Chemscore.CHOScore>  (638) 
0.0000

>  <Gold.PLP.Chemscore.Hbond>  (638) 
3.8313

>  <Gold.PLP.Chemscore.Internal.Correction>  (638) 
0.0007

>  <Gold.PLP.Chemscore.Metal>  (638) 
0.0000

>  <Gold.PLP.Fitness>  (638) 
38.8888

>  <Gold.PLP.PLP>  (638) 
-27.8896

>  <Gold.PLP.ligand.clash>  (638) 
0.0000

>  <Gold.PLP.ligand.torsion>  (638) 
0.2476

>  <Gold.PLP.part.buried>  (638) 
-5.4790

>  <Gold.PLP.part.hbond>  (638) 
-5.4895

>  <Gold.PLP.part.metal>  (638) 
0.0000

>  <Gold.PLP.part.nonpolar>  (638) 
-18.3457

>  <Gold.PLP.part.repulsive>  (638) 
0.2663

>  <Gold.Protein.RotatedAtoms>  (638) 


>  <Gold.Protein.RotatedTorsions>  (638) 


>  <Gold.Protein.RotatedWaterAtoms>  (638) 


>  <Gold.Version>  (638) 
5.3.0

>  <PLP.Chemscore.CHOScore>  (638) 


>  <PLP.Chemscore.Hbond>  (638) 


>  <PLP.Chemscore.Internal.Correction>  (638) 


>  <PLP.Chemscore.Metal>  (638) 


>  <PLP.Fitness>  (638) 


>  <PLP.PLP>  (638) 


>  <PLP.ligand.clash>  (638) 


>  <PLP.ligand.torsion>  (638) 


>  <PLP.part.buried>  (638) 


>  <PLP.part.hbond>  (638) 


>  <PLP.part.metal>  (638) 


>  <PLP.part.nonpolar>  (638) 


>  <PLP.part.repulsive>  (638) 


>  <Version>  (638) 


$$$$
94|664022_40|Aromatic_carboxylic_acids_F|sdf|24|dock1|1
     RDKit          3D

 12 12  0  0  0  0  0  0  0  0999 V2000
   -8.2596  -17.1212   11.4595 C   0  0  0  0  0  0  0  0  0  0  0  0
   -7.6366  -15.8367   11.6688 N   0  0  0  0  0  0  0  0  0  0  0  0
   -8.3409  -14.6553   11.5719 C   0  0  0  0  0  0  0  0  0  0  0  0
   -9.5296  -14.5547   11.2978 O   0  0  0  0  0  0  0  0  0  0  0  0
   -7.5420  -13.4431   11.8503 C   0  0  0  0  0  0  0  0  0  0  0  0
   -8.1627  -12.1983   11.6738 C   0  0  0  0  0  0  0  0  0  0  0  0
   -7.4390  -11.0301   11.9055 C   0  0  0  0  0  0  0  0  0  0  0  0
   -6.1069  -11.0910   12.3103 C   0  0  0  0  0  0  0  0  0  0  0  0
   -5.4897  -12.3324   12.4853 C   0  0  0  0  0  0  0  0  0  0  0  0
   -6.2035  -13.5136   12.2549 C   0  0  0  0  0  0  0  0  0  0  0  0
   -5.3062  -15.1564   12.5638 Br  0  0  0  0  0  0  0  0  0  0  0  0
   -8.1960   -9.5005   11.6887 Cl  0  0  0  0  0  0  0  0  0  0  0  0
  1  2  1  0
  2  3  1  0
  3  4  2  0
  3  5  1  0
  5  6  2  0
  5 10  1  0
  6  7  1  0
  7  8  2  0
  7 12  1  0
  8  9  1  0
  9 10  2  0
 10 11  1  0
M  END
>  <Gold.Gold.Protein.RotatedWaterAtoms>  (639) 


>  <Gold.Id.Protein>  (639) 


>  <Gold.PLP.Chemscore.CHOScore>  (639) 
0.0000

>  <Gold.PLP.Chemscore.Hbond>  (639) 
0.4160

>  <Gold.PLP.Chemscore.Internal.Correction>  (639) 
0.0004

>  <Gold.PLP.Chemscore.Metal>  (639) 
0.0000

>  <Gold.PLP.Fitness>  (639) 
48.9046

>  <Gold.PLP.PLP>  (639) 
-47.6744

>  <Gold.PLP.ligand.clash>  (639) 
0.0000

>  <Gold.PLP.ligand.torsion>  (639) 
0.0091

>  <Gold.PLP.part.buried>  (639) 
-7.3578

>  <Gold.PLP.part.hbond>  (639) 
-0.5127

>  <Gold.PLP.part.metal>  (639) 
0.0000

>  <Gold.PLP.part.nonpolar>  (639) 
-40.3098

>  <Gold.PLP.part.repulsive>  (639) 
0.1684

>  <Gold.Protein.RotatedAtoms>  (639) 


>  <Gold.Protein.RotatedTorsions>  (639) 


>  <Gold.Protein.RotatedWaterAtoms>  (639) 


>  <Gold.Version>  (639) 
5.3.0

>  <PLP.Chemscore.CHOScore>  (639) 


>  <PLP.Chemscore.Hbond>  (639) 


>  <PLP.Chemscore.Internal.Correction>  (639) 


>  <PLP.Chemscore.Metal>  (639) 


>  <PLP.Fitness>  (639) 


>  <PLP.PLP>  (639) 


>  <PLP.ligand.clash>  (639) 


>  <PLP.ligand.torsion>  (639) 


>  <PLP.part.buried>  (639) 


>  <PLP.part.hbond>  (639) 


>  <PLP.part.metal>  (639) 


>  <PLP.part.nonpolar>  (639) 


>  <PLP.part.repulsive>  (639) 


>  <RMSD>  (639) 
0.30972197429

>  <Torsion>  (639) 
172.929186758

>  <TorsionO>  (639) 
24.4968065243

>  <TorsionR>  (639) 
162.574006718

>  <Version>  (639) 


>  <product>  (639) 
43|Compound_21|Compounds_3D_F|sdf|8|dock6|1

>  <rmsd>  (639) 
-1

$$$$
110|565385_49|Aromatic_carboxylic_acids_F|sdf|29|dock1|1
     RDKit          3D

 13 13  0  0  0  0  0  0  0  0999 V2000
  -10.1118  -17.9021   11.6320 C   0  0  0  0  0  0  0  0  0  0  0  0
   -9.7537  -16.5043   11.6546 N   0  0  0  0  0  0  0  0  0  0  0  0
   -8.4330  -16.1187   11.7930 C   0  0  0  0  0  0  0  0  0  0  0  0
   -7.5159  -16.9298   11.9008 O   0  0  0  0  0  0  0  0  0  0  0  0
   -8.1234  -14.6552   11.8105 C   0  0  0  0  0  0  0  0  0  0  0  0
   -9.0636  -13.6551   11.5375 C   0  0  0  0  0  0  0  0  0  0  0  0
   -8.6966  -12.3009   11.5726 C   0  0  0  0  0  0  0  0  0  0  0  0
   -7.3879  -11.9195   11.8809 C   0  0  0  0  0  0  0  0  0  0  0  0
   -6.4486  -12.9235   12.1551 C   0  0  0  0  0  0  0  0  0  0  0  0
   -6.8098  -14.2750   12.1207 C   0  0  0  0  0  0  0  0  0  0  0  0
   -4.6444  -12.5025   12.5849 Br  0  0  0  0  0  0  0  0  0  0  0  0
   -6.9476  -10.6242   11.9372 O   0  0  0  0  0  0  0  0  0  0  0  0
   -7.9020   -9.5910   11.7256 C   0  0  0  0  0  0  0  0  0  0  0  0
  1  2  1  0
  2  3  1  0
  3  4  2  0
  3  5  1  0
  5  6  2  0
  5 10  1  0
  6  7  1  0
  7  8  2  0
  8  9  1  0
  8 12  1  0
  9 10  2  0
  9 11  1  0
 12 13  1  0
M  END
>  <Gold.Gold.Protein.RotatedWaterAtoms>  (640) 


>  <Gold.Id.Protein>  (640) 


>  <Gold.PLP.Chemscore.CHOScore>  (640) 
0.0000

>  <Gold.PLP.Chemscore.Hbond>  (640) 
1.0000

>  <Gold.PLP.Chemscore.Internal.Correction>  (640) 
0.0000

>  <Gold.PLP.Chemscore.Metal>  (640) 
0.0000

>  <Gold.PLP.Fitness>  (640) 
43.9775

>  <Gold.PLP.PLP>  (640) 
-41.0517

>  <Gold.PLP.ligand.clash>  (640) 
0.0000

>  <Gold.PLP.ligand.torsion>  (640) 
0.0371

>  <Gold.PLP.part.buried>  (640) 
-3.7367

>  <Gold.PLP.part.hbond>  (640) 
-1.0000

>  <Gold.PLP.part.metal>  (640) 
0.0000

>  <Gold.PLP.part.nonpolar>  (640) 
-36.7483

>  <Gold.PLP.part.repulsive>  (640) 
0.4054

>  <Gold.Protein.RotatedAtoms>  (640) 


>  <Gold.Protein.RotatedTorsions>  (640) 


>  <Gold.Protein.RotatedWaterAtoms>  (640) 


>  <Gold.Version>  (640) 
5.3.0

>  <PLP.Chemscore.CHOScore>  (640) 


>  <PLP.Chemscore.Hbond>  (640) 


>  <PLP.Chemscore.Internal.Correction>  (640) 


>  <PLP.Chemscore.Metal>  (640) 


>  <PLP.Fitness>  (640) 


>  <PLP.PLP>  (640) 


>  <PLP.ligand.clash>  (640) 


>  <PLP.ligand.torsion>  (640) 


>  <PLP.part.buried>  (640) 


>  <PLP.part.hbond>  (640) 


>  <PLP.part.metal>  (640) 


>  <PLP.part.nonpolar>  (640) 


>  <PLP.part.repulsive>  (640) 


>  <RMSD>  (640) 
0.319376411377

>  <Torsion>  (640) 
169.460450784

>  <TorsionO>  (640) 
9.7963905484

>  <TorsionR>  (640) 
179.256841332

>  <Version>  (640) 


>  <product>  (640) 
43|Compound_21|Compounds_3D_F|sdf|8|dock6|1

>  <rmsd>  (640) 
-1

$$$$
128|137677_56|Aromatic_carboxylic_acids_F|sdf|33|dock1|1
     RDKit          3D

 11 11  0  0  0  0  0  0  0  0999 V2000
   -8.6116  -16.1544   11.8887 C   0  0  0  0  0  0  0  0  0  0  0  0
   -7.9978  -14.8484   11.9215 N   0  0  0  0  0  0  0  0  0  0  0  0
   -8.7778  -13.7008   11.8756 C   0  0  0  0  0  0  0  0  0  0  0  0
  -10.0002  -13.7896   11.8139 O   0  0  0  0  0  0  0  0  0  0  0  0
   -8.0808  -12.3609   11.9017 C   0  0  0  0  0  0  0  0  0  0  0  0
   -8.7916  -11.1851   11.5813 C   0  0  0  0  0  0  0  0  0  0  0  0
   -8.1781   -9.9267   11.5989 C   0  0  0  0  0  0  0  0  0  0  0  0
   -6.8391   -9.8089   11.9369 C   0  0  0  0  0  0  0  0  0  0  0  0
   -6.1124  -10.9502   12.2575 C   0  0  0  0  0  0  0  0  0  0  0  0
   -6.7171  -12.2196   12.2428 C   0  0  0  0  0  0  0  0  0  0  0  0
   -5.5419  -13.6455   12.7121 Br  0  0  0  0  0  0  0  0  0  0  0  0
  1  2  1  0
  2  3  1  0
  3  4  2  0
  3  5  1  0
  5  6  2  0
  5 10  1  0
  6  7  1  0
  7  8  2  0
  8  9  1  0
  9 10  2  0
 10 11  1  0
M  END
>  <Gold.Gold.Protein.RotatedWaterAtoms>  (641) 


>  <Gold.Id.Protein>  (641) 


>  <Gold.PLP.Chemscore.CHOScore>  (641) 
0.0000

>  <Gold.PLP.Chemscore.Hbond>  (641) 
1.0000

>  <Gold.PLP.Chemscore.Internal.Correction>  (641) 
0.0000

>  <Gold.PLP.Chemscore.Metal>  (641) 
0.0000

>  <Gold.PLP.Fitness>  (641) 
45.2899

>  <Gold.PLP.PLP>  (641) 
-42.4444

>  <Gold.PLP.ligand.clash>  (641) 
0.0000

>  <Gold.PLP.ligand.torsion>  (641) 
0.0772

>  <Gold.PLP.part.buried>  (641) 
-6.4690

>  <Gold.PLP.part.hbond>  (641) 
-0.6863

>  <Gold.PLP.part.metal>  (641) 
0.0000

>  <Gold.PLP.part.nonpolar>  (641) 
-34.8280

>  <Gold.PLP.part.repulsive>  (641) 
0.1963

>  <Gold.Protein.RotatedAtoms>  (641) 


>  <Gold.Protein.RotatedTorsions>  (641) 


>  <Gold.Protein.RotatedWaterAtoms>  (641) 


>  <Gold.Version>  (641) 
5.3.0

>  <PLP.Chemscore.CHOScore>  (641) 


>  <PLP.Chemscore.Hbond>  (641) 


>  <PLP.Chemscore.Internal.Correction>  (641) 


>  <PLP.Chemscore.Metal>  (641) 


>  <PLP.Fitness>  (641) 


>  <PLP.PLP>  (641) 


>  <PLP.ligand.clash>  (641) 


>  <PLP.ligand.torsion>  (641) 


>  <PLP.part.buried>  (641) 


>  <PLP.part.hbond>  (641) 


>  <PLP.part.metal>  (641) 


>  <PLP.part.nonpolar>  (641) 


>  <PLP.part.repulsive>  (641) 


>  <RMSD>  (641) 
0.428070490903

>  <Torsion>  (641) 
152.444048788

>  <TorsionO>  (641) 
39.0580871276

>  <TorsionR>  (641) 
168.497864085

>  <Version>  (641) 


>  <product>  (641) 
43|Compound_21|Compounds_3D_F|sdf|8|dock6|1

>  <rmsd>  (641) 
-1

$$$$
974|750794_1404|Aromatic_primary_amines_F|sdf|194|dock3|1
     RDKit          3D

 14 14  0  0  0  0  0  0  0  0999 V2000
  -13.6355  -18.1936    9.4145 C   0  0  0  0  0  0  0  0  0  0  0  0
  -13.2544  -19.4497   10.1732 C   0  0  0  0  0  0  0  0  0  0  0  0
  -11.8731  -19.3506   10.5383 O   0  0  0  0  0  0  0  0  0  0  0  0
  -11.6148  -18.5085   11.5823 C   0  0  0  0  0  0  0  0  0  0  0  0
  -12.3947  -18.2810   12.5004 O   0  0  0  0  0  0  0  0  0  0  0  0
  -10.3031  -17.8985   11.4902 C   0  0  0  0  0  0  0  0  0  0  0  0
   -9.1673  -18.4974   10.9931 C   0  0  0  0  0  0  0  0  0  0  0  0
   -8.1448  -17.6055   11.0758 O   0  0  0  0  0  0  0  0  0  0  0  0
   -8.7110  -16.4917   11.6237 C   0  0  0  0  0  0  0  0  0  0  0  0
   -9.9933  -16.6110   11.8915 N   0  0  0  0  0  0  0  0  0  0  0  0
   -7.9611  -15.3718   11.8549 N   0  0  0  0  0  0  0  0  0  0  0  0
   -8.5046  -14.1249   12.0676 C   0  0  0  0  0  0  0  0  0  0  0  0
   -9.6950  -13.8313   12.1035 O   0  0  0  0  0  0  0  0  0  0  0  0
   -7.4448  -13.0785   12.3021 C   0  0  0  0  0  0  0  0  0  0  0  0
  1  2  1  0
  2  3  1  0
  3  4  1  0
  4  5  2  0
  4  6  1  0
  6  7  2  0
  6 10  1  0
  7  8  1  0
  8  9  1  0
  9 10  2  0
  9 11  1  0
 11 12  1  0
 12 13  2  0
 12 14  1  0
M  END
>  <Gold.Gold.Protein.RotatedWaterAtoms>  (642) 


>  <Gold.Id.Protein>  (642) 


>  <Gold.PLP.Chemscore.CHOScore>  (642) 
0.0000

>  <Gold.PLP.Chemscore.Hbond>  (642) 
2.0000

>  <Gold.PLP.Chemscore.Internal.Correction>  (642) 
0.0053

>  <Gold.PLP.Chemscore.Metal>  (642) 
0.0000

>  <Gold.PLP.Fitness>  (642) 
36.8047

>  <Gold.PLP.PLP>  (642) 
-32.7996

>  <Gold.PLP.ligand.clash>  (642) 
0.0000

>  <Gold.PLP.ligand.torsion>  (642) 
1.0001

>  <Gold.PLP.part.buried>  (642) 
-6.5206

>  <Gold.PLP.part.hbond>  (642) 
-2.9156

>  <Gold.PLP.part.metal>  (642) 
0.0000

>  <Gold.PLP.part.nonpolar>  (642) 
-23.4080

>  <Gold.PLP.part.repulsive>  (642) 
0.3100

>  <Gold.Protein.RotatedAtoms>  (642) 


>  <Gold.Protein.RotatedTorsions>  (642) 


>  <Gold.Protein.RotatedWaterAtoms>  (642) 


>  <Gold.Version>  (642) 
5.3.0

>  <PLP.Chemscore.CHOScore>  (642) 


>  <PLP.Chemscore.Hbond>  (642) 


>  <PLP.Chemscore.Internal.Correction>  (642) 


>  <PLP.Chemscore.Metal>  (642) 


>  <PLP.Fitness>  (642) 


>  <PLP.PLP>  (642) 


>  <PLP.ligand.clash>  (642) 


>  <PLP.ligand.torsion>  (642) 


>  <PLP.part.buried>  (642) 


>  <PLP.part.hbond>  (642) 


>  <PLP.part.metal>  (642) 


>  <PLP.part.nonpolar>  (642) 


>  <PLP.part.repulsive>  (642) 


>  <RMSD>  (642) 
0.499949349045

>  <Torsion>  (642) 
159.973716791

>  <TorsionO>  (642) 
19.1052109979

>  <TorsionR>  (642) 
179.078927789

>  <Version>  (642) 


>  <product>  (642) 
43|Compound_21|Compounds_3D_F|sdf|8|dock6|1

>  <rmsd>  (642) 
-1

$$$$
1884|M3006_1781|Aromatic_primary_amines_F|sdf|361|dock3|1
     RDKit          3D

 31 34  0  0  0  0  0  0  0  0999 V2000
  -14.4210  -19.8971    8.7934 C   0  0  0  0  0  0  0  0  0  0  0  0
  -13.9762  -19.4927   10.1894 C   0  0  0  0  0  0  0  0  0  0  0  0
  -14.1356  -20.6409   11.1817 C   0  0  0  0  0  0  0  0  0  0  0  0
  -13.5197  -20.3070   12.5189 C   0  0  0  0  0  0  0  0  0  0  0  0
  -12.9307  -19.2724   12.7954 O   0  0  0  0  0  0  0  0  0  0  0  0
  -13.7110  -21.3451   13.3845 O   0  0  0  0  0  0  0  0  0  0  0  0
  -12.9425  -21.2698   14.5900 C   0  0  0  0  0  0  0  0  0  0  0  0
  -12.8849  -22.6189   15.2889 C   0  0  0  0  0  0  0  0  0  0  0  0
  -11.6552  -22.4172   16.1494 C   0  0  0  0  0  0  0  0  0  0  0  0
  -11.2420  -23.7410   16.7624 C   0  0  0  0  0  0  0  0  0  0  0  0
  -12.3024  -24.2223   17.5862 O   0  0  0  0  0  0  0  0  0  0  0  0
  -13.7888  -24.3384   16.9603 P   0  0  0  0  0  0  0  0  0  0  0  0
  -14.8775  -24.6795   17.9243 O   0  0  0  0  0  0  0  0  0  0  0  0
  -13.9839  -22.9641   16.1174 O   0  0  0  0  0  0  0  0  0  0  0  0
  -13.5991  -25.4435   15.8075 O   0  0  0  0  0  0  0  0  0  0  0  0
  -10.6922  -21.8161   15.2889 O   0  0  0  0  0  0  0  0  0  0  0  0
  -11.4338  -20.9664   14.3653 C   0  0  0  0  0  0  0  0  0  0  0  0
  -10.9052  -21.2017   13.0342 N   0  0  0  0  0  0  0  0  0  0  0  0
  -10.7814  -22.4114   12.4013 C   0  0  0  0  0  0  0  0  0  0  0  0
  -10.2640  -22.2918   11.1953 N   0  0  0  0  0  0  0  0  0  0  0  0
  -10.0274  -20.9476   11.0424 C   0  0  0  0  0  0  0  0  0  0  0  0
  -10.4203  -20.2487   12.1733 C   0  0  0  0  0  0  0  0  0  0  0  0
  -10.3338  -18.9216   12.3641 N   0  0  0  0  0  0  0  0  0  0  0  0
   -9.8057  -18.2730   11.3024 C   0  0  0  0  0  0  0  0  0  0  0  0
   -9.3808  -18.8370   10.1545 N   0  0  0  0  0  0  0  0  0  0  0  0
   -9.4895  -20.1691   10.0244 C   0  0  0  0  0  0  0  0  0  0  0  0
   -9.0330  -20.6622    8.8349 O   0  0  0  0  0  0  0  0  0  0  0  0
   -9.7222  -16.8901   11.4793 N   0  0  0  0  0  0  0  0  0  0  0  0
   -8.5796  -16.1798   11.7761 C   0  0  0  0  0  0  0  0  0  0  0  0
   -7.4445  -16.6221   11.9131 O   0  0  0  0  0  0  0  0  0  0  0  0
   -8.8524  -14.7024   11.8973 C   0  0  0  0  0  0  0  0  0  0  0  0
  1  2  1  0
  2  3  1  0
  3  4  1  0
  4  5  2  0
  4  6  1  0
  6  7  1  0
  7  8  1  0
  7 17  1  0
  8  9  1  0
  8 14  1  0
  9 10  1  0
  9 16  1  0
 10 11  1  0
 11 12  1  0
 12 13  2  0
 12 14  1  0
 12 15  1  0
 16 17  1  0
 17 18  1  0
 18 19  1  0
 18 22  1  0
 19 20  2  0
 20 21  1  0
 21 22  2  0
 21 26  1  0
 22 23  1  0
 23 24  2  0
 24 25  1  0
 24 28  1  0
 25 26  2  0
 26 27  1  0
 28 29  1  0
 29 30  2  0
 29 31  1  0
M  END
>  <Gold.Gold.Protein.RotatedWaterAtoms>  (643) 


>  <Gold.Id.Protein>  (643) 


>  <Gold.PLP.Chemscore.CHOScore>  (643) 
0.0000

>  <Gold.PLP.Chemscore.Hbond>  (643) 
1.2080

>  <Gold.PLP.Chemscore.Internal.Correction>  (643) 
0.1232

>  <Gold.PLP.Chemscore.Metal>  (643) 
0.0000

>  <Gold.PLP.Fitness>  (643) 
47.7145

>  <Gold.PLP.PLP>  (643) 
-46.0218

>  <Gold.PLP.ligand.clash>  (643) 
0.0000

>  <Gold.PLP.ligand.torsion>  (643) 
1.0272

>  <Gold.PLP.part.buried>  (643) 
-2.2958

>  <Gold.PLP.part.hbond>  (643) 
-4.0214

>  <Gold.PLP.part.metal>  (643) 
0.0000

>  <Gold.PLP.part.nonpolar>  (643) 
-41.4699

>  <Gold.PLP.part.repulsive>  (643) 
0.9524

>  <Gold.Protein.RotatedAtoms>  (643) 


>  <Gold.Protein.RotatedTorsions>  (643) 


>  <Gold.Protein.RotatedWaterAtoms>  (643) 


>  <Gold.Version>  (643) 
5.3.0

>  <PLP.Chemscore.CHOScore>  (643) 


>  <PLP.Chemscore.Hbond>  (643) 


>  <PLP.Chemscore.Internal.Correction>  (643) 


>  <PLP.Chemscore.Metal>  (643) 


>  <PLP.Fitness>  (643) 


>  <PLP.PLP>  (643) 


>  <PLP.ligand.clash>  (643) 


>  <PLP.ligand.torsion>  (643) 


>  <PLP.part.buried>  (643) 


>  <PLP.part.hbond>  (643) 


>  <PLP.part.metal>  (643) 


>  <PLP.part.nonpolar>  (643) 


>  <PLP.part.repulsive>  (643) 


>  <RMSD>  (643) 
0.291955871297

>  <Torsion>  (643) 
171.923704933

>  <TorsionO>  (643) 
6.03609353985

>  <TorsionR>  (643) 
177.959798473

>  <Version>  (643) 


>  <product>  (643) 
43|Compound_21|Compounds_3D_F|sdf|8|dock6|1

>  <rmsd>  (643) 
-1

$$$$
193|32168_281|Aromatic_primary_amines_F|sdf|39|dock6|1
     RDKit          3D

 23 25  0  0  0  0  0  0  0  0999 V2000
   -7.8439  -12.1461   11.8919 C   0  0  0  0  0  0  0  0  0  0  0  0
   -8.5691  -13.4472   11.6781 C   0  0  0  0  0  0  0  0  0  0  0  0
   -9.7886  -13.4981   11.5208 O   0  0  0  0  0  0  0  0  0  0  0  0
   -7.7264  -14.5390   11.7020 N   0  0  0  0  0  0  0  0  0  0  0  0
   -8.1889  -15.8197   11.5323 C   0  0  0  0  0  0  0  0  0  0  0  0
   -9.4747  -16.2039   11.8163 N   0  0  0  0  0  0  0  0  0  0  0  0
   -9.5964  -17.5375   11.5379 C   0  0  0  0  0  0  0  0  0  0  0  0
  -10.6643  -18.4283   11.6415 C   0  0  0  0  0  0  0  0  0  0  0  0
  -10.4051  -19.7586   11.2778 C   0  0  0  0  0  0  0  0  0  0  0  0
   -9.1530  -20.1507   10.7795 C   0  0  0  0  0  0  0  0  0  0  0  0
   -8.1017  -19.2294   10.6839 C   0  0  0  0  0  0  0  0  0  0  0  0
   -8.3349  -17.9032   11.0783 C   0  0  0  0  0  0  0  0  0  0  0  0
   -7.4773  -16.8281   11.0838 N   0  0  0  0  0  0  0  0  0  0  0  0
   -8.8530  -21.7658   10.2429 Cl  0  0  0  0  0  0  0  0  0  0  0  0
  -11.4669  -20.6323   11.3734 O   0  0  0  0  0  0  0  0  0  0  0  0
  -12.5262  -20.4408   10.5053 C   0  0  0  0  0  0  0  0  0  0  0  0
  -13.3188  -19.2846   10.5304 C   0  0  0  0  0  0  0  0  0  0  0  0
  -14.3665  -19.1344    9.6224 C   0  0  0  0  0  0  0  0  0  0  0  0
  -14.6219  -20.1279    8.6796 C   0  0  0  0  0  0  0  0  0  0  0  0
  -13.8238  -21.2756    8.6345 C   0  0  0  0  0  0  0  0  0  0  0  0
  -12.7674  -21.4342    9.5416 C   0  0  0  0  0  0  0  0  0  0  0  0
  -11.7588  -22.8458    9.4996 Cl  0  0  0  0  0  0  0  0  0  0  0  0
  -14.1988  -22.4584    7.4296 Cl  0  0  0  0  0  0  0  0  0  0  0  0
  1  2  1  0
  2  3  2  0
  2  4  1  0
  4  5  1  0
  5  6  1  0
  5 13  2  0
  6  7  1  0
  7  8  2  0
  7 12  1  0
  8  9  1  0
  9 10  2  0
  9 15  1  0
 10 11  1  0
 10 14  1  0
 11 12  2  0
 12 13  1  0
 15 16  1  0
 16 17  2  0
 16 21  1  0
 17 18  1  0
 18 19  2  0
 19 20  1  0
 20 21  2  0
 20 23  1  0
 21 22  1  0
M  END
>  <Gold.Gold.Protein.RotatedWaterAtoms>  (644) 


>  <Gold.Id.Protein>  (644) 


>  <Gold.PLP.Chemscore.CHOScore>  (644) 
0.0000

>  <Gold.PLP.Chemscore.Hbond>  (644) 
1.0000

>  <Gold.PLP.Chemscore.Internal.Correction>  (644) 
0.0086

>  <Gold.PLP.Chemscore.Metal>  (644) 
0.0000

>  <Gold.PLP.Fitness>  (644) 
50.7139

>  <Gold.PLP.PLP>  (644) 
-48.1706

>  <Gold.PLP.ligand.clash>  (644) 
0.0000

>  <Gold.PLP.ligand.torsion>  (644) 
0.2327

>  <Gold.PLP.part.buried>  (644) 
-6.5205

>  <Gold.PLP.part.hbond>  (644) 
-2.0000

>  <Gold.PLP.part.metal>  (644) 
0.0000

>  <Gold.PLP.part.nonpolar>  (644) 
-39.3857

>  <Gold.PLP.part.repulsive>  (644) 
0.3298

>  <Gold.Protein.RotatedAtoms>  (644) 


>  <Gold.Protein.RotatedTorsions>  (644) 


>  <Gold.Protein.RotatedWaterAtoms>  (644) 


>  <Gold.Version>  (644) 
5.3.0

>  <PLP.Chemscore.CHOScore>  (644) 


>  <PLP.Chemscore.Hbond>  (644) 


>  <PLP.Chemscore.Internal.Correction>  (644) 


>  <PLP.Chemscore.Metal>  (644) 


>  <PLP.Fitness>  (644) 


>  <PLP.PLP>  (644) 


>  <PLP.ligand.clash>  (644) 


>  <PLP.ligand.torsion>  (644) 


>  <PLP.part.buried>  (644) 


>  <PLP.part.hbond>  (644) 


>  <PLP.part.metal>  (644) 


>  <PLP.part.nonpolar>  (644) 


>  <PLP.part.repulsive>  (644) 


>  <RMSD>  (644) 
0.439733510035

>  <Torsion>  (644) 
177.672185574

>  <TorsionO>  (644) 
4.31728583372

>  <TorsionR>  (644) 
173.35489974

>  <Version>  (644) 


>  <product>  (644) 
43|Compound_21|Compounds_3D_F|sdf|8|dock6|1

>  <rmsd>  (644) 
-1

$$$$
32|Compound_19|Compounds_3D_F|sdf|6|dock5|1
     RDKit          3D

 12 11  0  0  0  0  0  0  0  0999 V2000
   -4.5999  -12.3154   13.3143 O   0  0  0  0  0  0  0  0  0  0  0  0
   -5.6154  -12.6427   12.5011 C   0  0  0  0  0  0  0  0  0  0  0  0
   -6.3942  -11.7942   12.1337 O   0  0  0  0  0  0  0  0  0  0  0  0
   -5.7865  -14.0690   12.0453 C   0  0  0  0  0  0  0  0  0  0  0  0
   -7.1812  -14.4779   12.2302 N   0  0  0  0  0  0  0  0  0  0  0  0
   -7.5679  -15.7258   11.9003 C   0  0  0  0  0  0  0  0  0  0  0  0
   -6.7602  -16.5109   11.4503 O   0  0  0  0  0  0  0  0  0  0  0  0
   -9.0023  -16.1460   12.0909 C   0  0  0  0  0  0  0  0  0  0  0  0
   -9.1808  -17.5134   11.5959 N   0  0  0  0  0  0  0  0  0  0  0  0
  -10.3657  -18.1362   11.7492 C   0  0  0  0  0  0  0  0  0  0  0  0
  -11.2848  -17.5655   12.2967 O   0  0  0  0  0  0  0  0  0  0  0  0
  -10.5568  -19.6018   11.2191 B   0  0  0  0  0  0  0  0  0  0  0  0
  1  2  1  0
  2  3  2  0
  2  4  1  0
  4  5  1  0
  5  6  1  0
  6  7  2  0
  6  8  1  0
  8  9  1  0
  9 10  1  0
 10 11  2  0
 10 12  1  0
M  END
>  <Gold.Gold.Protein.RotatedWaterAtoms>  (645) 


>  <Gold.Id.Protein>  (645) 


>  <Gold.PLP.Chemscore.CHOScore>  (645) 
0.0000

>  <Gold.PLP.Chemscore.Hbond>  (645) 
2.9920

>  <Gold.PLP.Chemscore.Internal.Correction>  (645) 
0.0064

>  <Gold.PLP.Chemscore.Metal>  (645) 
0.0000

>  <Gold.PLP.Fitness>  (645) 
37.3338

>  <Gold.PLP.PLP>  (645) 
-28.6521

>  <Gold.PLP.ligand.clash>  (645) 
0.0000

>  <Gold.PLP.ligand.torsion>  (645) 
0.1503

>  <Gold.PLP.part.buried>  (645) 
-7.0059

>  <Gold.PLP.part.hbond>  (645) 
-5.0000

>  <Gold.PLP.part.metal>  (645) 
0.0000

>  <Gold.PLP.part.nonpolar>  (645) 
-17.4257

>  <Gold.PLP.part.repulsive>  (645) 
0.4841

>  <Gold.Protein.RotatedAtoms>  (645) 


>  <Gold.Protein.RotatedTorsions>  (645) 


>  <Gold.Protein.RotatedWaterAtoms>  (645) 


>  <Gold.Version>  (645) 
5.3.0

>  <PLP.Chemscore.CHOScore>  (645) 


>  <PLP.Chemscore.Hbond>  (645) 


>  <PLP.Chemscore.Internal.Correction>  (645) 


>  <PLP.Chemscore.Metal>  (645) 


>  <PLP.Fitness>  (645) 


>  <PLP.PLP>  (645) 


>  <PLP.ligand.clash>  (645) 


>  <PLP.ligand.torsion>  (645) 


>  <PLP.part.buried>  (645) 


>  <PLP.part.hbond>  (645) 


>  <PLP.part.metal>  (645) 


>  <PLP.part.nonpolar>  (645) 


>  <PLP.part.repulsive>  (645) 


>  <Version>  (645) 


$$$$
94|664022_40|Aromatic_carboxylic_acids_F|sdf|24|dock1|1
     RDKit          3D

 12 12  0  0  0  0  0  0  0  0999 V2000
   -8.2596  -17.1212   11.4595 C   0  0  0  0  0  0  0  0  0  0  0  0
   -7.6366  -15.8367   11.6688 N   0  0  0  0  0  0  0  0  0  0  0  0
   -8.3409  -14.6553   11.5719 C   0  0  0  0  0  0  0  0  0  0  0  0
   -9.5296  -14.5547   11.2978 O   0  0  0  0  0  0  0  0  0  0  0  0
   -7.5420  -13.4431   11.8503 C   0  0  0  0  0  0  0  0  0  0  0  0
   -8.1627  -12.1983   11.6738 C   0  0  0  0  0  0  0  0  0  0  0  0
   -7.4390  -11.0301   11.9055 C   0  0  0  0  0  0  0  0  0  0  0  0
   -6.1069  -11.0910   12.3103 C   0  0  0  0  0  0  0  0  0  0  0  0
   -5.4897  -12.3324   12.4853 C   0  0  0  0  0  0  0  0  0  0  0  0
   -6.2035  -13.5136   12.2549 C   0  0  0  0  0  0  0  0  0  0  0  0
   -5.3062  -15.1564   12.5638 Br  0  0  0  0  0  0  0  0  0  0  0  0
   -8.1960   -9.5005   11.6887 Cl  0  0  0  0  0  0  0  0  0  0  0  0
  1  2  1  0
  2  3  1  0
  3  4  2  0
  3  5  1  0
  5  6  2  0
  5 10  1  0
  6  7  1  0
  7  8  2  0
  7 12  1  0
  8  9  1  0
  9 10  2  0
 10 11  1  0
M  END
>  <Gold.Gold.Protein.RotatedWaterAtoms>  (646) 


>  <Gold.Id.Protein>  (646) 


>  <Gold.PLP.Chemscore.CHOScore>  (646) 
0.0000

>  <Gold.PLP.Chemscore.Hbond>  (646) 
0.4160

>  <Gold.PLP.Chemscore.Internal.Correction>  (646) 
0.0004

>  <Gold.PLP.Chemscore.Metal>  (646) 
0.0000

>  <Gold.PLP.Fitness>  (646) 
48.9046

>  <Gold.PLP.PLP>  (646) 
-47.6744

>  <Gold.PLP.ligand.clash>  (646) 
0.0000

>  <Gold.PLP.ligand.torsion>  (646) 
0.0091

>  <Gold.PLP.part.buried>  (646) 
-7.3578

>  <Gold.PLP.part.hbond>  (646) 
-0.5127

>  <Gold.PLP.part.metal>  (646) 
0.0000

>  <Gold.PLP.part.nonpolar>  (646) 
-40.3098

>  <Gold.PLP.part.repulsive>  (646) 
0.1684

>  <Gold.Protein.RotatedAtoms>  (646) 


>  <Gold.Protein.RotatedTorsions>  (646) 


>  <Gold.Protein.RotatedWaterAtoms>  (646) 


>  <Gold.Version>  (646) 
5.3.0

>  <PLP.Chemscore.CHOScore>  (646) 


>  <PLP.Chemscore.Hbond>  (646) 


>  <PLP.Chemscore.Internal.Correction>  (646) 


>  <PLP.Chemscore.Metal>  (646) 


>  <PLP.Fitness>  (646) 


>  <PLP.PLP>  (646) 


>  <PLP.ligand.clash>  (646) 


>  <PLP.ligand.torsion>  (646) 


>  <PLP.part.buried>  (646) 


>  <PLP.part.hbond>  (646) 


>  <PLP.part.metal>  (646) 


>  <PLP.part.nonpolar>  (646) 


>  <PLP.part.repulsive>  (646) 


>  <RMSD>  (646) 
0.30972197429

>  <Torsion>  (646) 
172.929186758

>  <TorsionO>  (646) 
24.4968065243

>  <TorsionR>  (646) 
162.574006718

>  <Version>  (646) 


>  <product>  (646) 
32|Compound_19|Compounds_3D_F|sdf|6|dock5|1

>  <rmsd>  (646) 
-1

$$$$
110|565385_49|Aromatic_carboxylic_acids_F|sdf|29|dock1|1
     RDKit          3D

 13 13  0  0  0  0  0  0  0  0999 V2000
  -10.1118  -17.9021   11.6320 C   0  0  0  0  0  0  0  0  0  0  0  0
   -9.7537  -16.5043   11.6546 N   0  0  0  0  0  0  0  0  0  0  0  0
   -8.4330  -16.1187   11.7930 C   0  0  0  0  0  0  0  0  0  0  0  0
   -7.5159  -16.9298   11.9008 O   0  0  0  0  0  0  0  0  0  0  0  0
   -8.1234  -14.6552   11.8105 C   0  0  0  0  0  0  0  0  0  0  0  0
   -9.0636  -13.6551   11.5375 C   0  0  0  0  0  0  0  0  0  0  0  0
   -8.6966  -12.3009   11.5726 C   0  0  0  0  0  0  0  0  0  0  0  0
   -7.3879  -11.9195   11.8809 C   0  0  0  0  0  0  0  0  0  0  0  0
   -6.4486  -12.9235   12.1551 C   0  0  0  0  0  0  0  0  0  0  0  0
   -6.8098  -14.2750   12.1207 C   0  0  0  0  0  0  0  0  0  0  0  0
   -4.6444  -12.5025   12.5849 Br  0  0  0  0  0  0  0  0  0  0  0  0
   -6.9476  -10.6242   11.9372 O   0  0  0  0  0  0  0  0  0  0  0  0
   -7.9020   -9.5910   11.7256 C   0  0  0  0  0  0  0  0  0  0  0  0
  1  2  1  0
  2  3  1  0
  3  4  2  0
  3  5  1  0
  5  6  2  0
  5 10  1  0
  6  7  1  0
  7  8  2  0
  8  9  1  0
  8 12  1  0
  9 10  2  0
  9 11  1  0
 12 13  1  0
M  END
>  <Gold.Gold.Protein.RotatedWaterAtoms>  (647) 


>  <Gold.Id.Protein>  (647) 


>  <Gold.PLP.Chemscore.CHOScore>  (647) 
0.0000

>  <Gold.PLP.Chemscore.Hbond>  (647) 
1.0000

>  <Gold.PLP.Chemscore.Internal.Correction>  (647) 
0.0000

>  <Gold.PLP.Chemscore.Metal>  (647) 
0.0000

>  <Gold.PLP.Fitness>  (647) 
43.9775

>  <Gold.PLP.PLP>  (647) 
-41.0517

>  <Gold.PLP.ligand.clash>  (647) 
0.0000

>  <Gold.PLP.ligand.torsion>  (647) 
0.0371

>  <Gold.PLP.part.buried>  (647) 
-3.7367

>  <Gold.PLP.part.hbond>  (647) 
-1.0000

>  <Gold.PLP.part.metal>  (647) 
0.0000

>  <Gold.PLP.part.nonpolar>  (647) 
-36.7483

>  <Gold.PLP.part.repulsive>  (647) 
0.4054

>  <Gold.Protein.RotatedAtoms>  (647) 


>  <Gold.Protein.RotatedTorsions>  (647) 


>  <Gold.Protein.RotatedWaterAtoms>  (647) 


>  <Gold.Version>  (647) 
5.3.0

>  <PLP.Chemscore.CHOScore>  (647) 


>  <PLP.Chemscore.Hbond>  (647) 


>  <PLP.Chemscore.Internal.Correction>  (647) 


>  <PLP.Chemscore.Metal>  (647) 


>  <PLP.Fitness>  (647) 


>  <PLP.PLP>  (647) 


>  <PLP.ligand.clash>  (647) 


>  <PLP.ligand.torsion>  (647) 


>  <PLP.part.buried>  (647) 


>  <PLP.part.hbond>  (647) 


>  <PLP.part.metal>  (647) 


>  <PLP.part.nonpolar>  (647) 


>  <PLP.part.repulsive>  (647) 


>  <RMSD>  (647) 
0.319376411377

>  <Torsion>  (647) 
169.460450784

>  <TorsionO>  (647) 
9.7963905484

>  <TorsionR>  (647) 
179.256841332

>  <Version>  (647) 


>  <product>  (647) 
32|Compound_19|Compounds_3D_F|sdf|6|dock5|1

>  <rmsd>  (647) 
-1

$$$$
128|137677_56|Aromatic_carboxylic_acids_F|sdf|33|dock1|1
     RDKit          3D

 11 11  0  0  0  0  0  0  0  0999 V2000
   -8.6116  -16.1544   11.8887 C   0  0  0  0  0  0  0  0  0  0  0  0
   -7.9978  -14.8484   11.9215 N   0  0  0  0  0  0  0  0  0  0  0  0
   -8.7778  -13.7008   11.8756 C   0  0  0  0  0  0  0  0  0  0  0  0
  -10.0002  -13.7896   11.8139 O   0  0  0  0  0  0  0  0  0  0  0  0
   -8.0808  -12.3609   11.9017 C   0  0  0  0  0  0  0  0  0  0  0  0
   -8.7916  -11.1851   11.5813 C   0  0  0  0  0  0  0  0  0  0  0  0
   -8.1781   -9.9267   11.5989 C   0  0  0  0  0  0  0  0  0  0  0  0
   -6.8391   -9.8089   11.9369 C   0  0  0  0  0  0  0  0  0  0  0  0
   -6.1124  -10.9502   12.2575 C   0  0  0  0  0  0  0  0  0  0  0  0
   -6.7171  -12.2196   12.2428 C   0  0  0  0  0  0  0  0  0  0  0  0
   -5.5419  -13.6455   12.7121 Br  0  0  0  0  0  0  0  0  0  0  0  0
  1  2  1  0
  2  3  1  0
  3  4  2  0
  3  5  1  0
  5  6  2  0
  5 10  1  0
  6  7  1  0
  7  8  2  0
  8  9  1  0
  9 10  2  0
 10 11  1  0
M  END
>  <Gold.Gold.Protein.RotatedWaterAtoms>  (648) 


>  <Gold.Id.Protein>  (648) 


>  <Gold.PLP.Chemscore.CHOScore>  (648) 
0.0000

>  <Gold.PLP.Chemscore.Hbond>  (648) 
1.0000

>  <Gold.PLP.Chemscore.Internal.Correction>  (648) 
0.0000

>  <Gold.PLP.Chemscore.Metal>  (648) 
0.0000

>  <Gold.PLP.Fitness>  (648) 
45.2899

>  <Gold.PLP.PLP>  (648) 
-42.4444

>  <Gold.PLP.ligand.clash>  (648) 
0.0000

>  <Gold.PLP.ligand.torsion>  (648) 
0.0772

>  <Gold.PLP.part.buried>  (648) 
-6.4690

>  <Gold.PLP.part.hbond>  (648) 
-0.6863

>  <Gold.PLP.part.metal>  (648) 
0.0000

>  <Gold.PLP.part.nonpolar>  (648) 
-34.8280

>  <Gold.PLP.part.repulsive>  (648) 
0.1963

>  <Gold.Protein.RotatedAtoms>  (648) 


>  <Gold.Protein.RotatedTorsions>  (648) 


>  <Gold.Protein.RotatedWaterAtoms>  (648) 


>  <Gold.Version>  (648) 
5.3.0

>  <PLP.Chemscore.CHOScore>  (648) 


>  <PLP.Chemscore.Hbond>  (648) 


>  <PLP.Chemscore.Internal.Correction>  (648) 


>  <PLP.Chemscore.Metal>  (648) 


>  <PLP.Fitness>  (648) 


>  <PLP.PLP>  (648) 


>  <PLP.ligand.clash>  (648) 


>  <PLP.ligand.torsion>  (648) 


>  <PLP.part.buried>  (648) 


>  <PLP.part.hbond>  (648) 


>  <PLP.part.metal>  (648) 


>  <PLP.part.nonpolar>  (648) 


>  <PLP.part.repulsive>  (648) 


>  <RMSD>  (648) 
0.428070490903

>  <Torsion>  (648) 
152.444048788

>  <TorsionO>  (648) 
39.0580871276

>  <TorsionR>  (648) 
168.497864085

>  <Version>  (648) 


>  <product>  (648) 
32|Compound_19|Compounds_3D_F|sdf|6|dock5|1

>  <rmsd>  (648) 
-1

$$$$
974|750794_1404|Aromatic_primary_amines_F|sdf|194|dock3|1
     RDKit          3D

 14 14  0  0  0  0  0  0  0  0999 V2000
  -13.6355  -18.1936    9.4145 C   0  0  0  0  0  0  0  0  0  0  0  0
  -13.2544  -19.4497   10.1732 C   0  0  0  0  0  0  0  0  0  0  0  0
  -11.8731  -19.3506   10.5383 O   0  0  0  0  0  0  0  0  0  0  0  0
  -11.6148  -18.5085   11.5823 C   0  0  0  0  0  0  0  0  0  0  0  0
  -12.3947  -18.2810   12.5004 O   0  0  0  0  0  0  0  0  0  0  0  0
  -10.3031  -17.8985   11.4902 C   0  0  0  0  0  0  0  0  0  0  0  0
   -9.1673  -18.4974   10.9931 C   0  0  0  0  0  0  0  0  0  0  0  0
   -8.1448  -17.6055   11.0758 O   0  0  0  0  0  0  0  0  0  0  0  0
   -8.7110  -16.4917   11.6237 C   0  0  0  0  0  0  0  0  0  0  0  0
   -9.9933  -16.6110   11.8915 N   0  0  0  0  0  0  0  0  0  0  0  0
   -7.9611  -15.3718   11.8549 N   0  0  0  0  0  0  0  0  0  0  0  0
   -8.5046  -14.1249   12.0676 C   0  0  0  0  0  0  0  0  0  0  0  0
   -9.6950  -13.8313   12.1035 O   0  0  0  0  0  0  0  0  0  0  0  0
   -7.4448  -13.0785   12.3021 C   0  0  0  0  0  0  0  0  0  0  0  0
  1  2  1  0
  2  3  1  0
  3  4  1  0
  4  5  2  0
  4  6  1  0
  6  7  2  0
  6 10  1  0
  7  8  1  0
  8  9  1  0
  9 10  2  0
  9 11  1  0
 11 12  1  0
 12 13  2  0
 12 14  1  0
M  END
>  <Gold.Gold.Protein.RotatedWaterAtoms>  (649) 


>  <Gold.Id.Protein>  (649) 


>  <Gold.PLP.Chemscore.CHOScore>  (649) 
0.0000

>  <Gold.PLP.Chemscore.Hbond>  (649) 
2.0000

>  <Gold.PLP.Chemscore.Internal.Correction>  (649) 
0.0053

>  <Gold.PLP.Chemscore.Metal>  (649) 
0.0000

>  <Gold.PLP.Fitness>  (649) 
36.8047

>  <Gold.PLP.PLP>  (649) 
-32.7996

>  <Gold.PLP.ligand.clash>  (649) 
0.0000

>  <Gold.PLP.ligand.torsion>  (649) 
1.0001

>  <Gold.PLP.part.buried>  (649) 
-6.5206

>  <Gold.PLP.part.hbond>  (649) 
-2.9156

>  <Gold.PLP.part.metal>  (649) 
0.0000

>  <Gold.PLP.part.nonpolar>  (649) 
-23.4080

>  <Gold.PLP.part.repulsive>  (649) 
0.3100

>  <Gold.Protein.RotatedAtoms>  (649) 


>  <Gold.Protein.RotatedTorsions>  (649) 


>  <Gold.Protein.RotatedWaterAtoms>  (649) 


>  <Gold.Version>  (649) 
5.3.0

>  <PLP.Chemscore.CHOScore>  (649) 


>  <PLP.Chemscore.Hbond>  (649) 


>  <PLP.Chemscore.Internal.Correction>  (649) 


>  <PLP.Chemscore.Metal>  (649) 


>  <PLP.Fitness>  (649) 


>  <PLP.PLP>  (649) 


>  <PLP.ligand.clash>  (649) 


>  <PLP.ligand.torsion>  (649) 


>  <PLP.part.buried>  (649) 


>  <PLP.part.hbond>  (649) 


>  <PLP.part.metal>  (649) 


>  <PLP.part.nonpolar>  (649) 


>  <PLP.part.repulsive>  (649) 


>  <RMSD>  (649) 
0.499949349045

>  <Torsion>  (649) 
159.973716791

>  <TorsionO>  (649) 
19.1052109979

>  <TorsionR>  (649) 
179.078927789

>  <Version>  (649) 


>  <product>  (649) 
32|Compound_19|Compounds_3D_F|sdf|6|dock5|1

>  <rmsd>  (649) 
-1

$$$$
1884|M3006_1781|Aromatic_primary_amines_F|sdf|361|dock3|1
     RDKit          3D

 31 34  0  0  0  0  0  0  0  0999 V2000
  -14.4210  -19.8971    8.7934 C   0  0  0  0  0  0  0  0  0  0  0  0
  -13.9762  -19.4927   10.1894 C   0  0  0  0  0  0  0  0  0  0  0  0
  -14.1356  -20.6409   11.1817 C   0  0  0  0  0  0  0  0  0  0  0  0
  -13.5197  -20.3070   12.5189 C   0  0  0  0  0  0  0  0  0  0  0  0
  -12.9307  -19.2724   12.7954 O   0  0  0  0  0  0  0  0  0  0  0  0
  -13.7110  -21.3451   13.3845 O   0  0  0  0  0  0  0  0  0  0  0  0
  -12.9425  -21.2698   14.5900 C   0  0  0  0  0  0  0  0  0  0  0  0
  -12.8849  -22.6189   15.2889 C   0  0  0  0  0  0  0  0  0  0  0  0
  -11.6552  -22.4172   16.1494 C   0  0  0  0  0  0  0  0  0  0  0  0
  -11.2420  -23.7410   16.7624 C   0  0  0  0  0  0  0  0  0  0  0  0
  -12.3024  -24.2223   17.5862 O   0  0  0  0  0  0  0  0  0  0  0  0
  -13.7888  -24.3384   16.9603 P   0  0  0  0  0  0  0  0  0  0  0  0
  -14.8775  -24.6795   17.9243 O   0  0  0  0  0  0  0  0  0  0  0  0
  -13.9839  -22.9641   16.1174 O   0  0  0  0  0  0  0  0  0  0  0  0
  -13.5991  -25.4435   15.8075 O   0  0  0  0  0  0  0  0  0  0  0  0
  -10.6922  -21.8161   15.2889 O   0  0  0  0  0  0  0  0  0  0  0  0
  -11.4338  -20.9664   14.3653 C   0  0  0  0  0  0  0  0  0  0  0  0
  -10.9052  -21.2017   13.0342 N   0  0  0  0  0  0  0  0  0  0  0  0
  -10.7814  -22.4114   12.4013 C   0  0  0  0  0  0  0  0  0  0  0  0
  -10.2640  -22.2918   11.1953 N   0  0  0  0  0  0  0  0  0  0  0  0
  -10.0274  -20.9476   11.0424 C   0  0  0  0  0  0  0  0  0  0  0  0
  -10.4203  -20.2487   12.1733 C   0  0  0  0  0  0  0  0  0  0  0  0
  -10.3338  -18.9216   12.3641 N   0  0  0  0  0  0  0  0  0  0  0  0
   -9.8057  -18.2730   11.3024 C   0  0  0  0  0  0  0  0  0  0  0  0
   -9.3808  -18.8370   10.1545 N   0  0  0  0  0  0  0  0  0  0  0  0
   -9.4895  -20.1691   10.0244 C   0  0  0  0  0  0  0  0  0  0  0  0
   -9.0330  -20.6622    8.8349 O   0  0  0  0  0  0  0  0  0  0  0  0
   -9.7222  -16.8901   11.4793 N   0  0  0  0  0  0  0  0  0  0  0  0
   -8.5796  -16.1798   11.7761 C   0  0  0  0  0  0  0  0  0  0  0  0
   -7.4445  -16.6221   11.9131 O   0  0  0  0  0  0  0  0  0  0  0  0
   -8.8524  -14.7024   11.8973 C   0  0  0  0  0  0  0  0  0  0  0  0
  1  2  1  0
  2  3  1  0
  3  4  1  0
  4  5  2  0
  4  6  1  0
  6  7  1  0
  7  8  1  0
  7 17  1  0
  8  9  1  0
  8 14  1  0
  9 10  1  0
  9 16  1  0
 10 11  1  0
 11 12  1  0
 12 13  2  0
 12 14  1  0
 12 15  1  0
 16 17  1  0
 17 18  1  0
 18 19  1  0
 18 22  1  0
 19 20  2  0
 20 21  1  0
 21 22  2  0
 21 26  1  0
 22 23  1  0
 23 24  2  0
 24 25  1  0
 24 28  1  0
 25 26  2  0
 26 27  1  0
 28 29  1  0
 29 30  2  0
 29 31  1  0
M  END
>  <Gold.Gold.Protein.RotatedWaterAtoms>  (650) 


>  <Gold.Id.Protein>  (650) 


>  <Gold.PLP.Chemscore.CHOScore>  (650) 
0.0000

>  <Gold.PLP.Chemscore.Hbond>  (650) 
1.2080

>  <Gold.PLP.Chemscore.Internal.Correction>  (650) 
0.1232

>  <Gold.PLP.Chemscore.Metal>  (650) 
0.0000

>  <Gold.PLP.Fitness>  (650) 
47.7145

>  <Gold.PLP.PLP>  (650) 
-46.0218

>  <Gold.PLP.ligand.clash>  (650) 
0.0000

>  <Gold.PLP.ligand.torsion>  (650) 
1.0272

>  <Gold.PLP.part.buried>  (650) 
-2.2958

>  <Gold.PLP.part.hbond>  (650) 
-4.0214

>  <Gold.PLP.part.metal>  (650) 
0.0000

>  <Gold.PLP.part.nonpolar>  (650) 
-41.4699

>  <Gold.PLP.part.repulsive>  (650) 
0.9524

>  <Gold.Protein.RotatedAtoms>  (650) 


>  <Gold.Protein.RotatedTorsions>  (650) 


>  <Gold.Protein.RotatedWaterAtoms>  (650) 


>  <Gold.Version>  (650) 
5.3.0

>  <PLP.Chemscore.CHOScore>  (650) 


>  <PLP.Chemscore.Hbond>  (650) 


>  <PLP.Chemscore.Internal.Correction>  (650) 


>  <PLP.Chemscore.Metal>  (650) 


>  <PLP.Fitness>  (650) 


>  <PLP.PLP>  (650) 


>  <PLP.ligand.clash>  (650) 


>  <PLP.ligand.torsion>  (650) 


>  <PLP.part.buried>  (650) 


>  <PLP.part.hbond>  (650) 


>  <PLP.part.metal>  (650) 


>  <PLP.part.nonpolar>  (650) 


>  <PLP.part.repulsive>  (650) 


>  <RMSD>  (650) 
0.291955871297

>  <Torsion>  (650) 
171.923704933

>  <TorsionO>  (650) 
6.03609353985

>  <TorsionR>  (650) 
177.959798473

>  <Version>  (650) 


>  <product>  (650) 
32|Compound_19|Compounds_3D_F|sdf|6|dock5|1

>  <rmsd>  (650) 
-1

$$$$
193|32168_281|Aromatic_primary_amines_F|sdf|39|dock6|1
     RDKit          3D

 23 25  0  0  0  0  0  0  0  0999 V2000
   -7.8439  -12.1461   11.8919 C   0  0  0  0  0  0  0  0  0  0  0  0
   -8.5691  -13.4472   11.6781 C   0  0  0  0  0  0  0  0  0  0  0  0
   -9.7886  -13.4981   11.5208 O   0  0  0  0  0  0  0  0  0  0  0  0
   -7.7264  -14.5390   11.7020 N   0  0  0  0  0  0  0  0  0  0  0  0
   -8.1889  -15.8197   11.5323 C   0  0  0  0  0  0  0  0  0  0  0  0
   -9.4747  -16.2039   11.8163 N   0  0  0  0  0  0  0  0  0  0  0  0
   -9.5964  -17.5375   11.5379 C   0  0  0  0  0  0  0  0  0  0  0  0
  -10.6643  -18.4283   11.6415 C   0  0  0  0  0  0  0  0  0  0  0  0
  -10.4051  -19.7586   11.2778 C   0  0  0  0  0  0  0  0  0  0  0  0
   -9.1530  -20.1507   10.7795 C   0  0  0  0  0  0  0  0  0  0  0  0
   -8.1017  -19.2294   10.6839 C   0  0  0  0  0  0  0  0  0  0  0  0
   -8.3349  -17.9032   11.0783 C   0  0  0  0  0  0  0  0  0  0  0  0
   -7.4773  -16.8281   11.0838 N   0  0  0  0  0  0  0  0  0  0  0  0
   -8.8530  -21.7658   10.2429 Cl  0  0  0  0  0  0  0  0  0  0  0  0
  -11.4669  -20.6323   11.3734 O   0  0  0  0  0  0  0  0  0  0  0  0
  -12.5262  -20.4408   10.5053 C   0  0  0  0  0  0  0  0  0  0  0  0
  -13.3188  -19.2846   10.5304 C   0  0  0  0  0  0  0  0  0  0  0  0
  -14.3665  -19.1344    9.6224 C   0  0  0  0  0  0  0  0  0  0  0  0
  -14.6219  -20.1279    8.6796 C   0  0  0  0  0  0  0  0  0  0  0  0
  -13.8238  -21.2756    8.6345 C   0  0  0  0  0  0  0  0  0  0  0  0
  -12.7674  -21.4342    9.5416 C   0  0  0  0  0  0  0  0  0  0  0  0
  -11.7588  -22.8458    9.4996 Cl  0  0  0  0  0  0  0  0  0  0  0  0
  -14.1988  -22.4584    7.4296 Cl  0  0  0  0  0  0  0  0  0  0  0  0
  1  2  1  0
  2  3  2  0
  2  4  1  0
  4  5  1  0
  5  6  1  0
  5 13  2  0
  6  7  1  0
  7  8  2  0
  7 12  1  0
  8  9  1  0
  9 10  2  0
  9 15  1  0
 10 11  1  0
 10 14  1  0
 11 12  2  0
 12 13  1  0
 15 16  1  0
 16 17  2  0
 16 21  1  0
 17 18  1  0
 18 19  2  0
 19 20  1  0
 20 21  2  0
 20 23  1  0
 21 22  1  0
M  END
>  <Gold.Gold.Protein.RotatedWaterAtoms>  (651) 


>  <Gold.Id.Protein>  (651) 


>  <Gold.PLP.Chemscore.CHOScore>  (651) 
0.0000

>  <Gold.PLP.Chemscore.Hbond>  (651) 
1.0000

>  <Gold.PLP.Chemscore.Internal.Correction>  (651) 
0.0086

>  <Gold.PLP.Chemscore.Metal>  (651) 
0.0000

>  <Gold.PLP.Fitness>  (651) 
50.7139

>  <Gold.PLP.PLP>  (651) 
-48.1706

>  <Gold.PLP.ligand.clash>  (651) 
0.0000

>  <Gold.PLP.ligand.torsion>  (651) 
0.2327

>  <Gold.PLP.part.buried>  (651) 
-6.5205

>  <Gold.PLP.part.hbond>  (651) 
-2.0000

>  <Gold.PLP.part.metal>  (651) 
0.0000

>  <Gold.PLP.part.nonpolar>  (651) 
-39.3857

>  <Gold.PLP.part.repulsive>  (651) 
0.3298

>  <Gold.Protein.RotatedAtoms>  (651) 


>  <Gold.Protein.RotatedTorsions>  (651) 


>  <Gold.Protein.RotatedWaterAtoms>  (651) 


>  <Gold.Version>  (651) 
5.3.0

>  <PLP.Chemscore.CHOScore>  (651) 


>  <PLP.Chemscore.Hbond>  (651) 


>  <PLP.Chemscore.Internal.Correction>  (651) 


>  <PLP.Chemscore.Metal>  (651) 


>  <PLP.Fitness>  (651) 


>  <PLP.PLP>  (651) 


>  <PLP.ligand.clash>  (651) 


>  <PLP.ligand.torsion>  (651) 


>  <PLP.part.buried>  (651) 


>  <PLP.part.hbond>  (651) 


>  <PLP.part.metal>  (651) 


>  <PLP.part.nonpolar>  (651) 


>  <PLP.part.repulsive>  (651) 


>  <RMSD>  (651) 
0.439733510035

>  <Torsion>  (651) 
177.672185574

>  <TorsionO>  (651) 
4.31728583372

>  <TorsionR>  (651) 
173.35489974

>  <Version>  (651) 


>  <product>  (651) 
32|Compound_19|Compounds_3D_F|sdf|6|dock5|1

>  <rmsd>  (651) 
-1

$$$$
10|Compound_6|Compounds_3D_F|sdf|3|dock4|1
     RDKit          3D

 11 10  0  0  0  0  0  0  0  0999 V2000
   -8.1962  -16.3967    7.5082 B   0  0  0  0  0  0  0  0  0  0  0  0
   -7.9150  -16.1381    9.0307 C   0  0  0  0  0  0  0  0  0  0  0  0
   -7.3303  -16.9709    9.6899 O   0  0  0  0  0  0  0  0  0  0  0  0
   -8.3242  -14.9893    9.6055 N   0  0  0  0  0  0  0  0  0  0  0  0
   -8.0619  -14.7481   11.0269 C   0  0  0  0  0  0  0  0  0  0  0  0
   -8.5801  -13.3858   11.4089 C   0  0  0  0  0  0  0  0  0  0  0  0
   -9.7564  -13.1341   11.2995 O   0  0  0  0  0  0  0  0  0  0  0  0
   -7.7339  -12.4508   11.8714 O   0  0  0  0  0  0  0  0  0  0  0  0
   -8.0706  -11.0646   11.5996 C   0  0  0  0  0  0  0  0  0  0  0  0
   -8.7681  -15.8159   11.8641 C   0  0  0  0  0  0  0  0  0  0  0  0
   -6.5554  -14.8110   11.2855 C   0  0  0  0  0  0  0  0  0  0  0  0
  1  2  1  0
  2  3  2  0
  2  4  1  0
  4  5  1  0
  5  6  1  0
  5 10  1  0
  5 11  1  0
  6  7  2  0
  6  8  1  0
  8  9  1  0
M  END
>  <Gold.Gold.Protein.RotatedWaterAtoms>  (652) 


>  <Gold.Id.Protein>  (652) 


>  <Gold.PLP.Chemscore.CHOScore>  (652) 
0.0000

>  <Gold.PLP.Chemscore.Hbond>  (652) 
2.0000

>  <Gold.PLP.Chemscore.Internal.Correction>  (652) 
0.0001

>  <Gold.PLP.Chemscore.Metal>  (652) 
0.0000

>  <Gold.PLP.Fitness>  (652) 
30.6859

>  <Gold.PLP.PLP>  (652) 
-25.4500

>  <Gold.PLP.ligand.clash>  (652) 
0.0000

>  <Gold.PLP.ligand.torsion>  (652) 
0.3821

>  <Gold.PLP.part.buried>  (652) 
-4.1933

>  <Gold.PLP.part.hbond>  (652) 
-2.0000

>  <Gold.PLP.part.metal>  (652) 
0.0000

>  <Gold.PLP.part.nonpolar>  (652) 
-19.6557

>  <Gold.PLP.part.repulsive>  (652) 
0.3650

>  <Gold.Protein.RotatedAtoms>  (652) 


>  <Gold.Protein.RotatedTorsions>  (652) 


>  <Gold.Protein.RotatedWaterAtoms>  (652) 


>  <Gold.Version>  (652) 
5.3.0

>  <PLP.Chemscore.CHOScore>  (652) 


>  <PLP.Chemscore.Hbond>  (652) 


>  <PLP.Chemscore.Internal.Correction>  (652) 


>  <PLP.Chemscore.Metal>  (652) 


>  <PLP.Fitness>  (652) 


>  <PLP.PLP>  (652) 


>  <PLP.ligand.clash>  (652) 


>  <PLP.ligand.torsion>  (652) 


>  <PLP.part.buried>  (652) 


>  <PLP.part.hbond>  (652) 


>  <PLP.part.metal>  (652) 


>  <PLP.part.nonpolar>  (652) 


>  <PLP.part.repulsive>  (652) 


>  <Version>  (652) 


$$$$
94|664022_40|Aromatic_carboxylic_acids_F|sdf|24|dock1|1
     RDKit          3D

 12 12  0  0  0  0  0  0  0  0999 V2000
   -8.2596  -17.1212   11.4595 C   0  0  0  0  0  0  0  0  0  0  0  0
   -7.6366  -15.8367   11.6688 N   0  0  0  0  0  0  0  0  0  0  0  0
   -8.3409  -14.6553   11.5719 C   0  0  0  0  0  0  0  0  0  0  0  0
   -9.5296  -14.5547   11.2978 O   0  0  0  0  0  0  0  0  0  0  0  0
   -7.5420  -13.4431   11.8503 C   0  0  0  0  0  0  0  0  0  0  0  0
   -8.1627  -12.1983   11.6738 C   0  0  0  0  0  0  0  0  0  0  0  0
   -7.4390  -11.0301   11.9055 C   0  0  0  0  0  0  0  0  0  0  0  0
   -6.1069  -11.0910   12.3103 C   0  0  0  0  0  0  0  0  0  0  0  0
   -5.4897  -12.3324   12.4853 C   0  0  0  0  0  0  0  0  0  0  0  0
   -6.2035  -13.5136   12.2549 C   0  0  0  0  0  0  0  0  0  0  0  0
   -5.3062  -15.1564   12.5638 Br  0  0  0  0  0  0  0  0  0  0  0  0
   -8.1960   -9.5005   11.6887 Cl  0  0  0  0  0  0  0  0  0  0  0  0
  1  2  1  0
  2  3  1  0
  3  4  2  0
  3  5  1  0
  5  6  2  0
  5 10  1  0
  6  7  1  0
  7  8  2  0
  7 12  1  0
  8  9  1  0
  9 10  2  0
 10 11  1  0
M  END
>  <Gold.Gold.Protein.RotatedWaterAtoms>  (653) 


>  <Gold.Id.Protein>  (653) 


>  <Gold.PLP.Chemscore.CHOScore>  (653) 
0.0000

>  <Gold.PLP.Chemscore.Hbond>  (653) 
0.4160

>  <Gold.PLP.Chemscore.Internal.Correction>  (653) 
0.0004

>  <Gold.PLP.Chemscore.Metal>  (653) 
0.0000

>  <Gold.PLP.Fitness>  (653) 
48.9046

>  <Gold.PLP.PLP>  (653) 
-47.6744

>  <Gold.PLP.ligand.clash>  (653) 
0.0000

>  <Gold.PLP.ligand.torsion>  (653) 
0.0091

>  <Gold.PLP.part.buried>  (653) 
-7.3578

>  <Gold.PLP.part.hbond>  (653) 
-0.5127

>  <Gold.PLP.part.metal>  (653) 
0.0000

>  <Gold.PLP.part.nonpolar>  (653) 
-40.3098

>  <Gold.PLP.part.repulsive>  (653) 
0.1684

>  <Gold.Protein.RotatedAtoms>  (653) 


>  <Gold.Protein.RotatedTorsions>  (653) 


>  <Gold.Protein.RotatedWaterAtoms>  (653) 


>  <Gold.Version>  (653) 
5.3.0

>  <PLP.Chemscore.CHOScore>  (653) 


>  <PLP.Chemscore.Hbond>  (653) 


>  <PLP.Chemscore.Internal.Correction>  (653) 


>  <PLP.Chemscore.Metal>  (653) 


>  <PLP.Fitness>  (653) 


>  <PLP.PLP>  (653) 


>  <PLP.ligand.clash>  (653) 


>  <PLP.ligand.torsion>  (653) 


>  <PLP.part.buried>  (653) 


>  <PLP.part.hbond>  (653) 


>  <PLP.part.metal>  (653) 


>  <PLP.part.nonpolar>  (653) 


>  <PLP.part.repulsive>  (653) 


>  <RMSD>  (653) 
0.30972197429

>  <Torsion>  (653) 
172.929186758

>  <TorsionO>  (653) 
24.4968065243

>  <TorsionR>  (653) 
162.574006718

>  <Version>  (653) 


>  <product>  (653) 
10|Compound_6|Compounds_3D_F|sdf|3|dock4|1

>  <rmsd>  (653) 
-1

$$$$
110|565385_49|Aromatic_carboxylic_acids_F|sdf|29|dock1|1
     RDKit          3D

 13 13  0  0  0  0  0  0  0  0999 V2000
  -10.1118  -17.9021   11.6320 C   0  0  0  0  0  0  0  0  0  0  0  0
   -9.7537  -16.5043   11.6546 N   0  0  0  0  0  0  0  0  0  0  0  0
   -8.4330  -16.1187   11.7930 C   0  0  0  0  0  0  0  0  0  0  0  0
   -7.5159  -16.9298   11.9008 O   0  0  0  0  0  0  0  0  0  0  0  0
   -8.1234  -14.6552   11.8105 C   0  0  0  0  0  0  0  0  0  0  0  0
   -9.0636  -13.6551   11.5375 C   0  0  0  0  0  0  0  0  0  0  0  0
   -8.6966  -12.3009   11.5726 C   0  0  0  0  0  0  0  0  0  0  0  0
   -7.3879  -11.9195   11.8809 C   0  0  0  0  0  0  0  0  0  0  0  0
   -6.4486  -12.9235   12.1551 C   0  0  0  0  0  0  0  0  0  0  0  0
   -6.8098  -14.2750   12.1207 C   0  0  0  0  0  0  0  0  0  0  0  0
   -4.6444  -12.5025   12.5849 Br  0  0  0  0  0  0  0  0  0  0  0  0
   -6.9476  -10.6242   11.9372 O   0  0  0  0  0  0  0  0  0  0  0  0
   -7.9020   -9.5910   11.7256 C   0  0  0  0  0  0  0  0  0  0  0  0
  1  2  1  0
  2  3  1  0
  3  4  2  0
  3  5  1  0
  5  6  2  0
  5 10  1  0
  6  7  1  0
  7  8  2  0
  8  9  1  0
  8 12  1  0
  9 10  2  0
  9 11  1  0
 12 13  1  0
M  END
>  <Gold.Gold.Protein.RotatedWaterAtoms>  (654) 


>  <Gold.Id.Protein>  (654) 


>  <Gold.PLP.Chemscore.CHOScore>  (654) 
0.0000

>  <Gold.PLP.Chemscore.Hbond>  (654) 
1.0000

>  <Gold.PLP.Chemscore.Internal.Correction>  (654) 
0.0000

>  <Gold.PLP.Chemscore.Metal>  (654) 
0.0000

>  <Gold.PLP.Fitness>  (654) 
43.9775

>  <Gold.PLP.PLP>  (654) 
-41.0517

>  <Gold.PLP.ligand.clash>  (654) 
0.0000

>  <Gold.PLP.ligand.torsion>  (654) 
0.0371

>  <Gold.PLP.part.buried>  (654) 
-3.7367

>  <Gold.PLP.part.hbond>  (654) 
-1.0000

>  <Gold.PLP.part.metal>  (654) 
0.0000

>  <Gold.PLP.part.nonpolar>  (654) 
-36.7483

>  <Gold.PLP.part.repulsive>  (654) 
0.4054

>  <Gold.Protein.RotatedAtoms>  (654) 


>  <Gold.Protein.RotatedTorsions>  (654) 


>  <Gold.Protein.RotatedWaterAtoms>  (654) 


>  <Gold.Version>  (654) 
5.3.0

>  <PLP.Chemscore.CHOScore>  (654) 


>  <PLP.Chemscore.Hbond>  (654) 


>  <PLP.Chemscore.Internal.Correction>  (654) 


>  <PLP.Chemscore.Metal>  (654) 


>  <PLP.Fitness>  (654) 


>  <PLP.PLP>  (654) 


>  <PLP.ligand.clash>  (654) 


>  <PLP.ligand.torsion>  (654) 


>  <PLP.part.buried>  (654) 


>  <PLP.part.hbond>  (654) 


>  <PLP.part.metal>  (654) 


>  <PLP.part.nonpolar>  (654) 


>  <PLP.part.repulsive>  (654) 


>  <RMSD>  (654) 
0.319376411377

>  <Torsion>  (654) 
169.460450784

>  <TorsionO>  (654) 
9.7963905484

>  <TorsionR>  (654) 
179.256841332

>  <Version>  (654) 


>  <product>  (654) 
10|Compound_6|Compounds_3D_F|sdf|3|dock4|1

>  <rmsd>  (654) 
-1

$$$$
128|137677_56|Aromatic_carboxylic_acids_F|sdf|33|dock1|1
     RDKit          3D

 11 11  0  0  0  0  0  0  0  0999 V2000
   -8.6116  -16.1544   11.8887 C   0  0  0  0  0  0  0  0  0  0  0  0
   -7.9978  -14.8484   11.9215 N   0  0  0  0  0  0  0  0  0  0  0  0
   -8.7778  -13.7008   11.8756 C   0  0  0  0  0  0  0  0  0  0  0  0
  -10.0002  -13.7896   11.8139 O   0  0  0  0  0  0  0  0  0  0  0  0
   -8.0808  -12.3609   11.9017 C   0  0  0  0  0  0  0  0  0  0  0  0
   -8.7916  -11.1851   11.5813 C   0  0  0  0  0  0  0  0  0  0  0  0
   -8.1781   -9.9267   11.5989 C   0  0  0  0  0  0  0  0  0  0  0  0
   -6.8391   -9.8089   11.9369 C   0  0  0  0  0  0  0  0  0  0  0  0
   -6.1124  -10.9502   12.2575 C   0  0  0  0  0  0  0  0  0  0  0  0
   -6.7171  -12.2196   12.2428 C   0  0  0  0  0  0  0  0  0  0  0  0
   -5.5419  -13.6455   12.7121 Br  0  0  0  0  0  0  0  0  0  0  0  0
  1  2  1  0
  2  3  1  0
  3  4  2  0
  3  5  1  0
  5  6  2  0
  5 10  1  0
  6  7  1  0
  7  8  2  0
  8  9  1  0
  9 10  2  0
 10 11  1  0
M  END
>  <Gold.Gold.Protein.RotatedWaterAtoms>  (655) 


>  <Gold.Id.Protein>  (655) 


>  <Gold.PLP.Chemscore.CHOScore>  (655) 
0.0000

>  <Gold.PLP.Chemscore.Hbond>  (655) 
1.0000

>  <Gold.PLP.Chemscore.Internal.Correction>  (655) 
0.0000

>  <Gold.PLP.Chemscore.Metal>  (655) 
0.0000

>  <Gold.PLP.Fitness>  (655) 
45.2899

>  <Gold.PLP.PLP>  (655) 
-42.4444

>  <Gold.PLP.ligand.clash>  (655) 
0.0000

>  <Gold.PLP.ligand.torsion>  (655) 
0.0772

>  <Gold.PLP.part.buried>  (655) 
-6.4690

>  <Gold.PLP.part.hbond>  (655) 
-0.6863

>  <Gold.PLP.part.metal>  (655) 
0.0000

>  <Gold.PLP.part.nonpolar>  (655) 
-34.8280

>  <Gold.PLP.part.repulsive>  (655) 
0.1963

>  <Gold.Protein.RotatedAtoms>  (655) 


>  <Gold.Protein.RotatedTorsions>  (655) 


>  <Gold.Protein.RotatedWaterAtoms>  (655) 


>  <Gold.Version>  (655) 
5.3.0

>  <PLP.Chemscore.CHOScore>  (655) 


>  <PLP.Chemscore.Hbond>  (655) 


>  <PLP.Chemscore.Internal.Correction>  (655) 


>  <PLP.Chemscore.Metal>  (655) 


>  <PLP.Fitness>  (655) 


>  <PLP.PLP>  (655) 


>  <PLP.ligand.clash>  (655) 


>  <PLP.ligand.torsion>  (655) 


>  <PLP.part.buried>  (655) 


>  <PLP.part.hbond>  (655) 


>  <PLP.part.metal>  (655) 


>  <PLP.part.nonpolar>  (655) 


>  <PLP.part.repulsive>  (655) 


>  <RMSD>  (655) 
0.428070490903

>  <Torsion>  (655) 
152.444048788

>  <TorsionO>  (655) 
39.0580871276

>  <TorsionR>  (655) 
168.497864085

>  <Version>  (655) 


>  <product>  (655) 
10|Compound_6|Compounds_3D_F|sdf|3|dock4|1

>  <rmsd>  (655) 
-1

$$$$
974|750794_1404|Aromatic_primary_amines_F|sdf|194|dock3|1
     RDKit          3D

 14 14  0  0  0  0  0  0  0  0999 V2000
  -13.6355  -18.1936    9.4145 C   0  0  0  0  0  0  0  0  0  0  0  0
  -13.2544  -19.4497   10.1732 C   0  0  0  0  0  0  0  0  0  0  0  0
  -11.8731  -19.3506   10.5383 O   0  0  0  0  0  0  0  0  0  0  0  0
  -11.6148  -18.5085   11.5823 C   0  0  0  0  0  0  0  0  0  0  0  0
  -12.3947  -18.2810   12.5004 O   0  0  0  0  0  0  0  0  0  0  0  0
  -10.3031  -17.8985   11.4902 C   0  0  0  0  0  0  0  0  0  0  0  0
   -9.1673  -18.4974   10.9931 C   0  0  0  0  0  0  0  0  0  0  0  0
   -8.1448  -17.6055   11.0758 O   0  0  0  0  0  0  0  0  0  0  0  0
   -8.7110  -16.4917   11.6237 C   0  0  0  0  0  0  0  0  0  0  0  0
   -9.9933  -16.6110   11.8915 N   0  0  0  0  0  0  0  0  0  0  0  0
   -7.9611  -15.3718   11.8549 N   0  0  0  0  0  0  0  0  0  0  0  0
   -8.5046  -14.1249   12.0676 C   0  0  0  0  0  0  0  0  0  0  0  0
   -9.6950  -13.8313   12.1035 O   0  0  0  0  0  0  0  0  0  0  0  0
   -7.4448  -13.0785   12.3021 C   0  0  0  0  0  0  0  0  0  0  0  0
  1  2  1  0
  2  3  1  0
  3  4  1  0
  4  5  2  0
  4  6  1  0
  6  7  2  0
  6 10  1  0
  7  8  1  0
  8  9  1  0
  9 10  2  0
  9 11  1  0
 11 12  1  0
 12 13  2  0
 12 14  1  0
M  END
>  <Gold.Gold.Protein.RotatedWaterAtoms>  (656) 


>  <Gold.Id.Protein>  (656) 


>  <Gold.PLP.Chemscore.CHOScore>  (656) 
0.0000

>  <Gold.PLP.Chemscore.Hbond>  (656) 
2.0000

>  <Gold.PLP.Chemscore.Internal.Correction>  (656) 
0.0053

>  <Gold.PLP.Chemscore.Metal>  (656) 
0.0000

>  <Gold.PLP.Fitness>  (656) 
36.8047

>  <Gold.PLP.PLP>  (656) 
-32.7996

>  <Gold.PLP.ligand.clash>  (656) 
0.0000

>  <Gold.PLP.ligand.torsion>  (656) 
1.0001

>  <Gold.PLP.part.buried>  (656) 
-6.5206

>  <Gold.PLP.part.hbond>  (656) 
-2.9156

>  <Gold.PLP.part.metal>  (656) 
0.0000

>  <Gold.PLP.part.nonpolar>  (656) 
-23.4080

>  <Gold.PLP.part.repulsive>  (656) 
0.3100

>  <Gold.Protein.RotatedAtoms>  (656) 


>  <Gold.Protein.RotatedTorsions>  (656) 


>  <Gold.Protein.RotatedWaterAtoms>  (656) 


>  <Gold.Version>  (656) 
5.3.0

>  <PLP.Chemscore.CHOScore>  (656) 


>  <PLP.Chemscore.Hbond>  (656) 


>  <PLP.Chemscore.Internal.Correction>  (656) 


>  <PLP.Chemscore.Metal>  (656) 


>  <PLP.Fitness>  (656) 


>  <PLP.PLP>  (656) 


>  <PLP.ligand.clash>  (656) 


>  <PLP.ligand.torsion>  (656) 


>  <PLP.part.buried>  (656) 


>  <PLP.part.hbond>  (656) 


>  <PLP.part.metal>  (656) 


>  <PLP.part.nonpolar>  (656) 


>  <PLP.part.repulsive>  (656) 


>  <RMSD>  (656) 
0.499949349045

>  <Torsion>  (656) 
159.973716791

>  <TorsionO>  (656) 
19.1052109979

>  <TorsionR>  (656) 
179.078927789

>  <Version>  (656) 


>  <product>  (656) 
10|Compound_6|Compounds_3D_F|sdf|3|dock4|1

>  <rmsd>  (656) 
-1

$$$$
1884|M3006_1781|Aromatic_primary_amines_F|sdf|361|dock3|1
     RDKit          3D

 31 34  0  0  0  0  0  0  0  0999 V2000
  -14.4210  -19.8971    8.7934 C   0  0  0  0  0  0  0  0  0  0  0  0
  -13.9762  -19.4927   10.1894 C   0  0  0  0  0  0  0  0  0  0  0  0
  -14.1356  -20.6409   11.1817 C   0  0  0  0  0  0  0  0  0  0  0  0
  -13.5197  -20.3070   12.5189 C   0  0  0  0  0  0  0  0  0  0  0  0
  -12.9307  -19.2724   12.7954 O   0  0  0  0  0  0  0  0  0  0  0  0
  -13.7110  -21.3451   13.3845 O   0  0  0  0  0  0  0  0  0  0  0  0
  -12.9425  -21.2698   14.5900 C   0  0  0  0  0  0  0  0  0  0  0  0
  -12.8849  -22.6189   15.2889 C   0  0  0  0  0  0  0  0  0  0  0  0
  -11.6552  -22.4172   16.1494 C   0  0  0  0  0  0  0  0  0  0  0  0
  -11.2420  -23.7410   16.7624 C   0  0  0  0  0  0  0  0  0  0  0  0
  -12.3024  -24.2223   17.5862 O   0  0  0  0  0  0  0  0  0  0  0  0
  -13.7888  -24.3384   16.9603 P   0  0  0  0  0  0  0  0  0  0  0  0
  -14.8775  -24.6795   17.9243 O   0  0  0  0  0  0  0  0  0  0  0  0
  -13.9839  -22.9641   16.1174 O   0  0  0  0  0  0  0  0  0  0  0  0
  -13.5991  -25.4435   15.8075 O   0  0  0  0  0  0  0  0  0  0  0  0
  -10.6922  -21.8161   15.2889 O   0  0  0  0  0  0  0  0  0  0  0  0
  -11.4338  -20.9664   14.3653 C   0  0  0  0  0  0  0  0  0  0  0  0
  -10.9052  -21.2017   13.0342 N   0  0  0  0  0  0  0  0  0  0  0  0
  -10.7814  -22.4114   12.4013 C   0  0  0  0  0  0  0  0  0  0  0  0
  -10.2640  -22.2918   11.1953 N   0  0  0  0  0  0  0  0  0  0  0  0
  -10.0274  -20.9476   11.0424 C   0  0  0  0  0  0  0  0  0  0  0  0
  -10.4203  -20.2487   12.1733 C   0  0  0  0  0  0  0  0  0  0  0  0
  -10.3338  -18.9216   12.3641 N   0  0  0  0  0  0  0  0  0  0  0  0
   -9.8057  -18.2730   11.3024 C   0  0  0  0  0  0  0  0  0  0  0  0
   -9.3808  -18.8370   10.1545 N   0  0  0  0  0  0  0  0  0  0  0  0
   -9.4895  -20.1691   10.0244 C   0  0  0  0  0  0  0  0  0  0  0  0
   -9.0330  -20.6622    8.8349 O   0  0  0  0  0  0  0  0  0  0  0  0
   -9.7222  -16.8901   11.4793 N   0  0  0  0  0  0  0  0  0  0  0  0
   -8.5796  -16.1798   11.7761 C   0  0  0  0  0  0  0  0  0  0  0  0
   -7.4445  -16.6221   11.9131 O   0  0  0  0  0  0  0  0  0  0  0  0
   -8.8524  -14.7024   11.8973 C   0  0  0  0  0  0  0  0  0  0  0  0
  1  2  1  0
  2  3  1  0
  3  4  1  0
  4  5  2  0
  4  6  1  0
  6  7  1  0
  7  8  1  0
  7 17  1  0
  8  9  1  0
  8 14  1  0
  9 10  1  0
  9 16  1  0
 10 11  1  0
 11 12  1  0
 12 13  2  0
 12 14  1  0
 12 15  1  0
 16 17  1  0
 17 18  1  0
 18 19  1  0
 18 22  1  0
 19 20  2  0
 20 21  1  0
 21 22  2  0
 21 26  1  0
 22 23  1  0
 23 24  2  0
 24 25  1  0
 24 28  1  0
 25 26  2  0
 26 27  1  0
 28 29  1  0
 29 30  2  0
 29 31  1  0
M  END
>  <Gold.Gold.Protein.RotatedWaterAtoms>  (657) 


>  <Gold.Id.Protein>  (657) 


>  <Gold.PLP.Chemscore.CHOScore>  (657) 
0.0000

>  <Gold.PLP.Chemscore.Hbond>  (657) 
1.2080

>  <Gold.PLP.Chemscore.Internal.Correction>  (657) 
0.1232

>  <Gold.PLP.Chemscore.Metal>  (657) 
0.0000

>  <Gold.PLP.Fitness>  (657) 
47.7145

>  <Gold.PLP.PLP>  (657) 
-46.0218

>  <Gold.PLP.ligand.clash>  (657) 
0.0000

>  <Gold.PLP.ligand.torsion>  (657) 
1.0272

>  <Gold.PLP.part.buried>  (657) 
-2.2958

>  <Gold.PLP.part.hbond>  (657) 
-4.0214

>  <Gold.PLP.part.metal>  (657) 
0.0000

>  <Gold.PLP.part.nonpolar>  (657) 
-41.4699

>  <Gold.PLP.part.repulsive>  (657) 
0.9524

>  <Gold.Protein.RotatedAtoms>  (657) 


>  <Gold.Protein.RotatedTorsions>  (657) 


>  <Gold.Protein.RotatedWaterAtoms>  (657) 


>  <Gold.Version>  (657) 
5.3.0

>  <PLP.Chemscore.CHOScore>  (657) 


>  <PLP.Chemscore.Hbond>  (657) 


>  <PLP.Chemscore.Internal.Correction>  (657) 


>  <PLP.Chemscore.Metal>  (657) 


>  <PLP.Fitness>  (657) 


>  <PLP.PLP>  (657) 


>  <PLP.ligand.clash>  (657) 


>  <PLP.ligand.torsion>  (657) 


>  <PLP.part.buried>  (657) 


>  <PLP.part.hbond>  (657) 


>  <PLP.part.metal>  (657) 


>  <PLP.part.nonpolar>  (657) 


>  <PLP.part.repulsive>  (657) 


>  <RMSD>  (657) 
0.291955871297

>  <Torsion>  (657) 
171.923704933

>  <TorsionO>  (657) 
6.03609353985

>  <TorsionR>  (657) 
177.959798473

>  <Version>  (657) 


>  <product>  (657) 
10|Compound_6|Compounds_3D_F|sdf|3|dock4|1

>  <rmsd>  (657) 
-1

$$$$
193|32168_281|Aromatic_primary_amines_F|sdf|39|dock6|1
     RDKit          3D

 23 25  0  0  0  0  0  0  0  0999 V2000
   -7.8439  -12.1461   11.8919 C   0  0  0  0  0  0  0  0  0  0  0  0
   -8.5691  -13.4472   11.6781 C   0  0  0  0  0  0  0  0  0  0  0  0
   -9.7886  -13.4981   11.5208 O   0  0  0  0  0  0  0  0  0  0  0  0
   -7.7264  -14.5390   11.7020 N   0  0  0  0  0  0  0  0  0  0  0  0
   -8.1889  -15.8197   11.5323 C   0  0  0  0  0  0  0  0  0  0  0  0
   -9.4747  -16.2039   11.8163 N   0  0  0  0  0  0  0  0  0  0  0  0
   -9.5964  -17.5375   11.5379 C   0  0  0  0  0  0  0  0  0  0  0  0
  -10.6643  -18.4283   11.6415 C   0  0  0  0  0  0  0  0  0  0  0  0
  -10.4051  -19.7586   11.2778 C   0  0  0  0  0  0  0  0  0  0  0  0
   -9.1530  -20.1507   10.7795 C   0  0  0  0  0  0  0  0  0  0  0  0
   -8.1017  -19.2294   10.6839 C   0  0  0  0  0  0  0  0  0  0  0  0
   -8.3349  -17.9032   11.0783 C   0  0  0  0  0  0  0  0  0  0  0  0
   -7.4773  -16.8281   11.0838 N   0  0  0  0  0  0  0  0  0  0  0  0
   -8.8530  -21.7658   10.2429 Cl  0  0  0  0  0  0  0  0  0  0  0  0
  -11.4669  -20.6323   11.3734 O   0  0  0  0  0  0  0  0  0  0  0  0
  -12.5262  -20.4408   10.5053 C   0  0  0  0  0  0  0  0  0  0  0  0
  -13.3188  -19.2846   10.5304 C   0  0  0  0  0  0  0  0  0  0  0  0
  -14.3665  -19.1344    9.6224 C   0  0  0  0  0  0  0  0  0  0  0  0
  -14.6219  -20.1279    8.6796 C   0  0  0  0  0  0  0  0  0  0  0  0
  -13.8238  -21.2756    8.6345 C   0  0  0  0  0  0  0  0  0  0  0  0
  -12.7674  -21.4342    9.5416 C   0  0  0  0  0  0  0  0  0  0  0  0
  -11.7588  -22.8458    9.4996 Cl  0  0  0  0  0  0  0  0  0  0  0  0
  -14.1988  -22.4584    7.4296 Cl  0  0  0  0  0  0  0  0  0  0  0  0
  1  2  1  0
  2  3  2  0
  2  4  1  0
  4  5  1  0
  5  6  1  0
  5 13  2  0
  6  7  1  0
  7  8  2  0
  7 12  1  0
  8  9  1  0
  9 10  2  0
  9 15  1  0
 10 11  1  0
 10 14  1  0
 11 12  2  0
 12 13  1  0
 15 16  1  0
 16 17  2  0
 16 21  1  0
 17 18  1  0
 18 19  2  0
 19 20  1  0
 20 21  2  0
 20 23  1  0
 21 22  1  0
M  END
>  <Gold.Gold.Protein.RotatedWaterAtoms>  (658) 


>  <Gold.Id.Protein>  (658) 


>  <Gold.PLP.Chemscore.CHOScore>  (658) 
0.0000

>  <Gold.PLP.Chemscore.Hbond>  (658) 
1.0000

>  <Gold.PLP.Chemscore.Internal.Correction>  (658) 
0.0086

>  <Gold.PLP.Chemscore.Metal>  (658) 
0.0000

>  <Gold.PLP.Fitness>  (658) 
50.7139

>  <Gold.PLP.PLP>  (658) 
-48.1706

>  <Gold.PLP.ligand.clash>  (658) 
0.0000

>  <Gold.PLP.ligand.torsion>  (658) 
0.2327

>  <Gold.PLP.part.buried>  (658) 
-6.5205

>  <Gold.PLP.part.hbond>  (658) 
-2.0000

>  <Gold.PLP.part.metal>  (658) 
0.0000

>  <Gold.PLP.part.nonpolar>  (658) 
-39.3857

>  <Gold.PLP.part.repulsive>  (658) 
0.3298

>  <Gold.Protein.RotatedAtoms>  (658) 


>  <Gold.Protein.RotatedTorsions>  (658) 


>  <Gold.Protein.RotatedWaterAtoms>  (658) 


>  <Gold.Version>  (658) 
5.3.0

>  <PLP.Chemscore.CHOScore>  (658) 


>  <PLP.Chemscore.Hbond>  (658) 


>  <PLP.Chemscore.Internal.Correction>  (658) 


>  <PLP.Chemscore.Metal>  (658) 


>  <PLP.Fitness>  (658) 


>  <PLP.PLP>  (658) 


>  <PLP.ligand.clash>  (658) 


>  <PLP.ligand.torsion>  (658) 


>  <PLP.part.buried>  (658) 


>  <PLP.part.hbond>  (658) 


>  <PLP.part.metal>  (658) 


>  <PLP.part.nonpolar>  (658) 


>  <PLP.part.repulsive>  (658) 


>  <RMSD>  (658) 
0.439733510035

>  <Torsion>  (658) 
177.672185574

>  <TorsionO>  (658) 
4.31728583372

>  <TorsionR>  (658) 
173.35489974

>  <Version>  (658) 


>  <product>  (658) 
10|Compound_6|Compounds_3D_F|sdf|3|dock4|1

>  <rmsd>  (658) 
-1

$$$$
11|Compound_8|Compounds_3D_F|sdf|4|dock1|1
     RDKit          3D

  8  7  0  0  0  0  0  0  0  0999 V2000
  -10.2993  -14.4581   12.9096 O   0  0  0  0  0  0  0  0  0  0  0  0
   -9.4208  -13.4095   12.4976 C   0  0  0  0  0  0  0  0  0  0  0  0
   -8.2429  -14.0046   11.7243 C   0  0  0  0  0  0  0  0  0  0  0  0
   -8.6878  -14.3978   10.3846 N   0  0  0  0  0  0  0  0  0  0  0  0
   -8.5698  -15.6795    9.9839 C   0  0  0  0  0  0  0  0  0  0  0  0
   -8.0963  -16.5065   10.7333 O   0  0  0  0  0  0  0  0  0  0  0  0
   -9.0457  -16.1001    8.5488 B   0  0  0  0  0  0  0  0  0  0  0  0
   -7.1303  -12.9609   11.6065 C   0  0  0  0  0  0  0  0  0  0  0  0
  1  2  1  0
  2  3  1  0
  3  4  1  0
  3  8  1  0
  4  5  1  0
  5  6  2  0
  5  7  1  0
M  END
>  <Gold.Gold.Protein.RotatedWaterAtoms>  (659) 


>  <Gold.Id.Protein>  (659) 


>  <Gold.PLP.Chemscore.CHOScore>  (659) 
0.0000

>  <Gold.PLP.Chemscore.Hbond>  (659) 
3.0213

>  <Gold.PLP.Chemscore.Internal.Correction>  (659) 
0.0000

>  <Gold.PLP.Chemscore.Metal>  (659) 
0.0000

>  <Gold.PLP.Fitness>  (659) 
31.4529

>  <Gold.PLP.PLP>  (659) 
-22.6103

>  <Gold.PLP.ligand.clash>  (659) 
0.0000

>  <Gold.PLP.ligand.torsion>  (659) 
0.1107

>  <Gold.PLP.part.buried>  (659) 
-3.3106

>  <Gold.PLP.part.hbond>  (659) 
-4.3121

>  <Gold.PLP.part.metal>  (659) 
0.0000

>  <Gold.PLP.part.nonpolar>  (659) 
-14.3312

>  <Gold.PLP.part.repulsive>  (659) 
0.1142

>  <Gold.Protein.RotatedAtoms>  (659) 


>  <Gold.Protein.RotatedTorsions>  (659) 


>  <Gold.Protein.RotatedWaterAtoms>  (659) 


>  <Gold.Version>  (659) 
5.3.0

>  <PLP.Chemscore.CHOScore>  (659) 


>  <PLP.Chemscore.Hbond>  (659) 


>  <PLP.Chemscore.Internal.Correction>  (659) 


>  <PLP.Chemscore.Metal>  (659) 


>  <PLP.Fitness>  (659) 


>  <PLP.PLP>  (659) 


>  <PLP.ligand.clash>  (659) 


>  <PLP.ligand.torsion>  (659) 


>  <PLP.part.buried>  (659) 


>  <PLP.part.hbond>  (659) 


>  <PLP.part.metal>  (659) 


>  <PLP.part.nonpolar>  (659) 


>  <PLP.part.repulsive>  (659) 


>  <Version>  (659) 


$$$$
94|664022_40|Aromatic_carboxylic_acids_F|sdf|24|dock1|1
     RDKit          3D

 12 12  0  0  0  0  0  0  0  0999 V2000
   -8.2596  -17.1212   11.4595 C   0  0  0  0  0  0  0  0  0  0  0  0
   -7.6366  -15.8367   11.6688 N   0  0  0  0  0  0  0  0  0  0  0  0
   -8.3409  -14.6553   11.5719 C   0  0  0  0  0  0  0  0  0  0  0  0
   -9.5296  -14.5547   11.2978 O   0  0  0  0  0  0  0  0  0  0  0  0
   -7.5420  -13.4431   11.8503 C   0  0  0  0  0  0  0  0  0  0  0  0
   -8.1627  -12.1983   11.6738 C   0  0  0  0  0  0  0  0  0  0  0  0
   -7.4390  -11.0301   11.9055 C   0  0  0  0  0  0  0  0  0  0  0  0
   -6.1069  -11.0910   12.3103 C   0  0  0  0  0  0  0  0  0  0  0  0
   -5.4897  -12.3324   12.4853 C   0  0  0  0  0  0  0  0  0  0  0  0
   -6.2035  -13.5136   12.2549 C   0  0  0  0  0  0  0  0  0  0  0  0
   -5.3062  -15.1564   12.5638 Br  0  0  0  0  0  0  0  0  0  0  0  0
   -8.1960   -9.5005   11.6887 Cl  0  0  0  0  0  0  0  0  0  0  0  0
  1  2  1  0
  2  3  1  0
  3  4  2  0
  3  5  1  0
  5  6  2  0
  5 10  1  0
  6  7  1  0
  7  8  2  0
  7 12  1  0
  8  9  1  0
  9 10  2  0
 10 11  1  0
M  END
>  <Gold.Gold.Protein.RotatedWaterAtoms>  (660) 


>  <Gold.Id.Protein>  (660) 


>  <Gold.PLP.Chemscore.CHOScore>  (660) 
0.0000

>  <Gold.PLP.Chemscore.Hbond>  (660) 
0.4160

>  <Gold.PLP.Chemscore.Internal.Correction>  (660) 
0.0004

>  <Gold.PLP.Chemscore.Metal>  (660) 
0.0000

>  <Gold.PLP.Fitness>  (660) 
48.9046

>  <Gold.PLP.PLP>  (660) 
-47.6744

>  <Gold.PLP.ligand.clash>  (660) 
0.0000

>  <Gold.PLP.ligand.torsion>  (660) 
0.0091

>  <Gold.PLP.part.buried>  (660) 
-7.3578

>  <Gold.PLP.part.hbond>  (660) 
-0.5127

>  <Gold.PLP.part.metal>  (660) 
0.0000

>  <Gold.PLP.part.nonpolar>  (660) 
-40.3098

>  <Gold.PLP.part.repulsive>  (660) 
0.1684

>  <Gold.Protein.RotatedAtoms>  (660) 


>  <Gold.Protein.RotatedTorsions>  (660) 


>  <Gold.Protein.RotatedWaterAtoms>  (660) 


>  <Gold.Version>  (660) 
5.3.0

>  <PLP.Chemscore.CHOScore>  (660) 


>  <PLP.Chemscore.Hbond>  (660) 


>  <PLP.Chemscore.Internal.Correction>  (660) 


>  <PLP.Chemscore.Metal>  (660) 


>  <PLP.Fitness>  (660) 


>  <PLP.PLP>  (660) 


>  <PLP.ligand.clash>  (660) 


>  <PLP.ligand.torsion>  (660) 


>  <PLP.part.buried>  (660) 


>  <PLP.part.hbond>  (660) 


>  <PLP.part.metal>  (660) 


>  <PLP.part.nonpolar>  (660) 


>  <PLP.part.repulsive>  (660) 


>  <RMSD>  (660) 
0.30972197429

>  <Torsion>  (660) 
172.929186758

>  <TorsionO>  (660) 
24.4968065243

>  <TorsionR>  (660) 
162.574006718

>  <Version>  (660) 


>  <product>  (660) 
11|Compound_8|Compounds_3D_F|sdf|4|dock1|1

>  <rmsd>  (660) 
-1

$$$$
110|565385_49|Aromatic_carboxylic_acids_F|sdf|29|dock1|1
     RDKit          3D

 13 13  0  0  0  0  0  0  0  0999 V2000
  -10.1118  -17.9021   11.6320 C   0  0  0  0  0  0  0  0  0  0  0  0
   -9.7537  -16.5043   11.6546 N   0  0  0  0  0  0  0  0  0  0  0  0
   -8.4330  -16.1187   11.7930 C   0  0  0  0  0  0  0  0  0  0  0  0
   -7.5159  -16.9298   11.9008 O   0  0  0  0  0  0  0  0  0  0  0  0
   -8.1234  -14.6552   11.8105 C   0  0  0  0  0  0  0  0  0  0  0  0
   -9.0636  -13.6551   11.5375 C   0  0  0  0  0  0  0  0  0  0  0  0
   -8.6966  -12.3009   11.5726 C   0  0  0  0  0  0  0  0  0  0  0  0
   -7.3879  -11.9195   11.8809 C   0  0  0  0  0  0  0  0  0  0  0  0
   -6.4486  -12.9235   12.1551 C   0  0  0  0  0  0  0  0  0  0  0  0
   -6.8098  -14.2750   12.1207 C   0  0  0  0  0  0  0  0  0  0  0  0
   -4.6444  -12.5025   12.5849 Br  0  0  0  0  0  0  0  0  0  0  0  0
   -6.9476  -10.6242   11.9372 O   0  0  0  0  0  0  0  0  0  0  0  0
   -7.9020   -9.5910   11.7256 C   0  0  0  0  0  0  0  0  0  0  0  0
  1  2  1  0
  2  3  1  0
  3  4  2  0
  3  5  1  0
  5  6  2  0
  5 10  1  0
  6  7  1  0
  7  8  2  0
  8  9  1  0
  8 12  1  0
  9 10  2  0
  9 11  1  0
 12 13  1  0
M  END
>  <Gold.Gold.Protein.RotatedWaterAtoms>  (661) 


>  <Gold.Id.Protein>  (661) 


>  <Gold.PLP.Chemscore.CHOScore>  (661) 
0.0000

>  <Gold.PLP.Chemscore.Hbond>  (661) 
1.0000

>  <Gold.PLP.Chemscore.Internal.Correction>  (661) 
0.0000

>  <Gold.PLP.Chemscore.Metal>  (661) 
0.0000

>  <Gold.PLP.Fitness>  (661) 
43.9775

>  <Gold.PLP.PLP>  (661) 
-41.0517

>  <Gold.PLP.ligand.clash>  (661) 
0.0000

>  <Gold.PLP.ligand.torsion>  (661) 
0.0371

>  <Gold.PLP.part.buried>  (661) 
-3.7367

>  <Gold.PLP.part.hbond>  (661) 
-1.0000

>  <Gold.PLP.part.metal>  (661) 
0.0000

>  <Gold.PLP.part.nonpolar>  (661) 
-36.7483

>  <Gold.PLP.part.repulsive>  (661) 
0.4054

>  <Gold.Protein.RotatedAtoms>  (661) 


>  <Gold.Protein.RotatedTorsions>  (661) 


>  <Gold.Protein.RotatedWaterAtoms>  (661) 


>  <Gold.Version>  (661) 
5.3.0

>  <PLP.Chemscore.CHOScore>  (661) 


>  <PLP.Chemscore.Hbond>  (661) 


>  <PLP.Chemscore.Internal.Correction>  (661) 


>  <PLP.Chemscore.Metal>  (661) 


>  <PLP.Fitness>  (661) 


>  <PLP.PLP>  (661) 


>  <PLP.ligand.clash>  (661) 


>  <PLP.ligand.torsion>  (661) 


>  <PLP.part.buried>  (661) 


>  <PLP.part.hbond>  (661) 


>  <PLP.part.metal>  (661) 


>  <PLP.part.nonpolar>  (661) 


>  <PLP.part.repulsive>  (661) 


>  <RMSD>  (661) 
0.319376411377

>  <Torsion>  (661) 
169.460450784

>  <TorsionO>  (661) 
9.7963905484

>  <TorsionR>  (661) 
179.256841332

>  <Version>  (661) 


>  <product>  (661) 
11|Compound_8|Compounds_3D_F|sdf|4|dock1|1

>  <rmsd>  (661) 
-1

$$$$
128|137677_56|Aromatic_carboxylic_acids_F|sdf|33|dock1|1
     RDKit          3D

 11 11  0  0  0  0  0  0  0  0999 V2000
   -8.6116  -16.1544   11.8887 C   0  0  0  0  0  0  0  0  0  0  0  0
   -7.9978  -14.8484   11.9215 N   0  0  0  0  0  0  0  0  0  0  0  0
   -8.7778  -13.7008   11.8756 C   0  0  0  0  0  0  0  0  0  0  0  0
  -10.0002  -13.7896   11.8139 O   0  0  0  0  0  0  0  0  0  0  0  0
   -8.0808  -12.3609   11.9017 C   0  0  0  0  0  0  0  0  0  0  0  0
   -8.7916  -11.1851   11.5813 C   0  0  0  0  0  0  0  0  0  0  0  0
   -8.1781   -9.9267   11.5989 C   0  0  0  0  0  0  0  0  0  0  0  0
   -6.8391   -9.8089   11.9369 C   0  0  0  0  0  0  0  0  0  0  0  0
   -6.1124  -10.9502   12.2575 C   0  0  0  0  0  0  0  0  0  0  0  0
   -6.7171  -12.2196   12.2428 C   0  0  0  0  0  0  0  0  0  0  0  0
   -5.5419  -13.6455   12.7121 Br  0  0  0  0  0  0  0  0  0  0  0  0
  1  2  1  0
  2  3  1  0
  3  4  2  0
  3  5  1  0
  5  6  2  0
  5 10  1  0
  6  7  1  0
  7  8  2  0
  8  9  1  0
  9 10  2  0
 10 11  1  0
M  END
>  <Gold.Gold.Protein.RotatedWaterAtoms>  (662) 


>  <Gold.Id.Protein>  (662) 


>  <Gold.PLP.Chemscore.CHOScore>  (662) 
0.0000

>  <Gold.PLP.Chemscore.Hbond>  (662) 
1.0000

>  <Gold.PLP.Chemscore.Internal.Correction>  (662) 
0.0000

>  <Gold.PLP.Chemscore.Metal>  (662) 
0.0000

>  <Gold.PLP.Fitness>  (662) 
45.2899

>  <Gold.PLP.PLP>  (662) 
-42.4444

>  <Gold.PLP.ligand.clash>  (662) 
0.0000

>  <Gold.PLP.ligand.torsion>  (662) 
0.0772

>  <Gold.PLP.part.buried>  (662) 
-6.4690

>  <Gold.PLP.part.hbond>  (662) 
-0.6863

>  <Gold.PLP.part.metal>  (662) 
0.0000

>  <Gold.PLP.part.nonpolar>  (662) 
-34.8280

>  <Gold.PLP.part.repulsive>  (662) 
0.1963

>  <Gold.Protein.RotatedAtoms>  (662) 


>  <Gold.Protein.RotatedTorsions>  (662) 


>  <Gold.Protein.RotatedWaterAtoms>  (662) 


>  <Gold.Version>  (662) 
5.3.0

>  <PLP.Chemscore.CHOScore>  (662) 


>  <PLP.Chemscore.Hbond>  (662) 


>  <PLP.Chemscore.Internal.Correction>  (662) 


>  <PLP.Chemscore.Metal>  (662) 


>  <PLP.Fitness>  (662) 


>  <PLP.PLP>  (662) 


>  <PLP.ligand.clash>  (662) 


>  <PLP.ligand.torsion>  (662) 


>  <PLP.part.buried>  (662) 


>  <PLP.part.hbond>  (662) 


>  <PLP.part.metal>  (662) 


>  <PLP.part.nonpolar>  (662) 


>  <PLP.part.repulsive>  (662) 


>  <RMSD>  (662) 
0.428070490903

>  <Torsion>  (662) 
152.444048788

>  <TorsionO>  (662) 
39.0580871276

>  <TorsionR>  (662) 
168.497864085

>  <Version>  (662) 


>  <product>  (662) 
11|Compound_8|Compounds_3D_F|sdf|4|dock1|1

>  <rmsd>  (662) 
-1

$$$$
974|750794_1404|Aromatic_primary_amines_F|sdf|194|dock3|1
     RDKit          3D

 14 14  0  0  0  0  0  0  0  0999 V2000
  -13.6355  -18.1936    9.4145 C   0  0  0  0  0  0  0  0  0  0  0  0
  -13.2544  -19.4497   10.1732 C   0  0  0  0  0  0  0  0  0  0  0  0
  -11.8731  -19.3506   10.5383 O   0  0  0  0  0  0  0  0  0  0  0  0
  -11.6148  -18.5085   11.5823 C   0  0  0  0  0  0  0  0  0  0  0  0
  -12.3947  -18.2810   12.5004 O   0  0  0  0  0  0  0  0  0  0  0  0
  -10.3031  -17.8985   11.4902 C   0  0  0  0  0  0  0  0  0  0  0  0
   -9.1673  -18.4974   10.9931 C   0  0  0  0  0  0  0  0  0  0  0  0
   -8.1448  -17.6055   11.0758 O   0  0  0  0  0  0  0  0  0  0  0  0
   -8.7110  -16.4917   11.6237 C   0  0  0  0  0  0  0  0  0  0  0  0
   -9.9933  -16.6110   11.8915 N   0  0  0  0  0  0  0  0  0  0  0  0
   -7.9611  -15.3718   11.8549 N   0  0  0  0  0  0  0  0  0  0  0  0
   -8.5046  -14.1249   12.0676 C   0  0  0  0  0  0  0  0  0  0  0  0
   -9.6950  -13.8313   12.1035 O   0  0  0  0  0  0  0  0  0  0  0  0
   -7.4448  -13.0785   12.3021 C   0  0  0  0  0  0  0  0  0  0  0  0
  1  2  1  0
  2  3  1  0
  3  4  1  0
  4  5  2  0
  4  6  1  0
  6  7  2  0
  6 10  1  0
  7  8  1  0
  8  9  1  0
  9 10  2  0
  9 11  1  0
 11 12  1  0
 12 13  2  0
 12 14  1  0
M  END
>  <Gold.Gold.Protein.RotatedWaterAtoms>  (663) 


>  <Gold.Id.Protein>  (663) 


>  <Gold.PLP.Chemscore.CHOScore>  (663) 
0.0000

>  <Gold.PLP.Chemscore.Hbond>  (663) 
2.0000

>  <Gold.PLP.Chemscore.Internal.Correction>  (663) 
0.0053

>  <Gold.PLP.Chemscore.Metal>  (663) 
0.0000

>  <Gold.PLP.Fitness>  (663) 
36.8047

>  <Gold.PLP.PLP>  (663) 
-32.7996

>  <Gold.PLP.ligand.clash>  (663) 
0.0000

>  <Gold.PLP.ligand.torsion>  (663) 
1.0001

>  <Gold.PLP.part.buried>  (663) 
-6.5206

>  <Gold.PLP.part.hbond>  (663) 
-2.9156

>  <Gold.PLP.part.metal>  (663) 
0.0000

>  <Gold.PLP.part.nonpolar>  (663) 
-23.4080

>  <Gold.PLP.part.repulsive>  (663) 
0.3100

>  <Gold.Protein.RotatedAtoms>  (663) 


>  <Gold.Protein.RotatedTorsions>  (663) 


>  <Gold.Protein.RotatedWaterAtoms>  (663) 


>  <Gold.Version>  (663) 
5.3.0

>  <PLP.Chemscore.CHOScore>  (663) 


>  <PLP.Chemscore.Hbond>  (663) 


>  <PLP.Chemscore.Internal.Correction>  (663) 


>  <PLP.Chemscore.Metal>  (663) 


>  <PLP.Fitness>  (663) 


>  <PLP.PLP>  (663) 


>  <PLP.ligand.clash>  (663) 


>  <PLP.ligand.torsion>  (663) 


>  <PLP.part.buried>  (663) 


>  <PLP.part.hbond>  (663) 


>  <PLP.part.metal>  (663) 


>  <PLP.part.nonpolar>  (663) 


>  <PLP.part.repulsive>  (663) 


>  <RMSD>  (663) 
0.499949349045

>  <Torsion>  (663) 
159.973716791

>  <TorsionO>  (663) 
19.1052109979

>  <TorsionR>  (663) 
179.078927789

>  <Version>  (663) 


>  <product>  (663) 
11|Compound_8|Compounds_3D_F|sdf|4|dock1|1

>  <rmsd>  (663) 
-1

$$$$
1884|M3006_1781|Aromatic_primary_amines_F|sdf|361|dock3|1
     RDKit          3D

 31 34  0  0  0  0  0  0  0  0999 V2000
  -14.4210  -19.8971    8.7934 C   0  0  0  0  0  0  0  0  0  0  0  0
  -13.9762  -19.4927   10.1894 C   0  0  0  0  0  0  0  0  0  0  0  0
  -14.1356  -20.6409   11.1817 C   0  0  0  0  0  0  0  0  0  0  0  0
  -13.5197  -20.3070   12.5189 C   0  0  0  0  0  0  0  0  0  0  0  0
  -12.9307  -19.2724   12.7954 O   0  0  0  0  0  0  0  0  0  0  0  0
  -13.7110  -21.3451   13.3845 O   0  0  0  0  0  0  0  0  0  0  0  0
  -12.9425  -21.2698   14.5900 C   0  0  0  0  0  0  0  0  0  0  0  0
  -12.8849  -22.6189   15.2889 C   0  0  0  0  0  0  0  0  0  0  0  0
  -11.6552  -22.4172   16.1494 C   0  0  0  0  0  0  0  0  0  0  0  0
  -11.2420  -23.7410   16.7624 C   0  0  0  0  0  0  0  0  0  0  0  0
  -12.3024  -24.2223   17.5862 O   0  0  0  0  0  0  0  0  0  0  0  0
  -13.7888  -24.3384   16.9603 P   0  0  0  0  0  0  0  0  0  0  0  0
  -14.8775  -24.6795   17.9243 O   0  0  0  0  0  0  0  0  0  0  0  0
  -13.9839  -22.9641   16.1174 O   0  0  0  0  0  0  0  0  0  0  0  0
  -13.5991  -25.4435   15.8075 O   0  0  0  0  0  0  0  0  0  0  0  0
  -10.6922  -21.8161   15.2889 O   0  0  0  0  0  0  0  0  0  0  0  0
  -11.4338  -20.9664   14.3653 C   0  0  0  0  0  0  0  0  0  0  0  0
  -10.9052  -21.2017   13.0342 N   0  0  0  0  0  0  0  0  0  0  0  0
  -10.7814  -22.4114   12.4013 C   0  0  0  0  0  0  0  0  0  0  0  0
  -10.2640  -22.2918   11.1953 N   0  0  0  0  0  0  0  0  0  0  0  0
  -10.0274  -20.9476   11.0424 C   0  0  0  0  0  0  0  0  0  0  0  0
  -10.4203  -20.2487   12.1733 C   0  0  0  0  0  0  0  0  0  0  0  0
  -10.3338  -18.9216   12.3641 N   0  0  0  0  0  0  0  0  0  0  0  0
   -9.8057  -18.2730   11.3024 C   0  0  0  0  0  0  0  0  0  0  0  0
   -9.3808  -18.8370   10.1545 N   0  0  0  0  0  0  0  0  0  0  0  0
   -9.4895  -20.1691   10.0244 C   0  0  0  0  0  0  0  0  0  0  0  0
   -9.0330  -20.6622    8.8349 O   0  0  0  0  0  0  0  0  0  0  0  0
   -9.7222  -16.8901   11.4793 N   0  0  0  0  0  0  0  0  0  0  0  0
   -8.5796  -16.1798   11.7761 C   0  0  0  0  0  0  0  0  0  0  0  0
   -7.4445  -16.6221   11.9131 O   0  0  0  0  0  0  0  0  0  0  0  0
   -8.8524  -14.7024   11.8973 C   0  0  0  0  0  0  0  0  0  0  0  0
  1  2  1  0
  2  3  1  0
  3  4  1  0
  4  5  2  0
  4  6  1  0
  6  7  1  0
  7  8  1  0
  7 17  1  0
  8  9  1  0
  8 14  1  0
  9 10  1  0
  9 16  1  0
 10 11  1  0
 11 12  1  0
 12 13  2  0
 12 14  1  0
 12 15  1  0
 16 17  1  0
 17 18  1  0
 18 19  1  0
 18 22  1  0
 19 20  2  0
 20 21  1  0
 21 22  2  0
 21 26  1  0
 22 23  1  0
 23 24  2  0
 24 25  1  0
 24 28  1  0
 25 26  2  0
 26 27  1  0
 28 29  1  0
 29 30  2  0
 29 31  1  0
M  END
>  <Gold.Gold.Protein.RotatedWaterAtoms>  (664) 


>  <Gold.Id.Protein>  (664) 


>  <Gold.PLP.Chemscore.CHOScore>  (664) 
0.0000

>  <Gold.PLP.Chemscore.Hbond>  (664) 
1.2080

>  <Gold.PLP.Chemscore.Internal.Correction>  (664) 
0.1232

>  <Gold.PLP.Chemscore.Metal>  (664) 
0.0000

>  <Gold.PLP.Fitness>  (664) 
47.7145

>  <Gold.PLP.PLP>  (664) 
-46.0218

>  <Gold.PLP.ligand.clash>  (664) 
0.0000

>  <Gold.PLP.ligand.torsion>  (664) 
1.0272

>  <Gold.PLP.part.buried>  (664) 
-2.2958

>  <Gold.PLP.part.hbond>  (664) 
-4.0214

>  <Gold.PLP.part.metal>  (664) 
0.0000

>  <Gold.PLP.part.nonpolar>  (664) 
-41.4699

>  <Gold.PLP.part.repulsive>  (664) 
0.9524

>  <Gold.Protein.RotatedAtoms>  (664) 


>  <Gold.Protein.RotatedTorsions>  (664) 


>  <Gold.Protein.RotatedWaterAtoms>  (664) 


>  <Gold.Version>  (664) 
5.3.0

>  <PLP.Chemscore.CHOScore>  (664) 


>  <PLP.Chemscore.Hbond>  (664) 


>  <PLP.Chemscore.Internal.Correction>  (664) 


>  <PLP.Chemscore.Metal>  (664) 


>  <PLP.Fitness>  (664) 


>  <PLP.PLP>  (664) 


>  <PLP.ligand.clash>  (664) 


>  <PLP.ligand.torsion>  (664) 


>  <PLP.part.buried>  (664) 


>  <PLP.part.hbond>  (664) 


>  <PLP.part.metal>  (664) 


>  <PLP.part.nonpolar>  (664) 


>  <PLP.part.repulsive>  (664) 


>  <RMSD>  (664) 
0.291955871297

>  <Torsion>  (664) 
171.923704933

>  <TorsionO>  (664) 
6.03609353985

>  <TorsionR>  (664) 
177.959798473

>  <Version>  (664) 


>  <product>  (664) 
11|Compound_8|Compounds_3D_F|sdf|4|dock1|1

>  <rmsd>  (664) 
-1

$$$$
193|32168_281|Aromatic_primary_amines_F|sdf|39|dock6|1
     RDKit          3D

 23 25  0  0  0  0  0  0  0  0999 V2000
   -7.8439  -12.1461   11.8919 C   0  0  0  0  0  0  0  0  0  0  0  0
   -8.5691  -13.4472   11.6781 C   0  0  0  0  0  0  0  0  0  0  0  0
   -9.7886  -13.4981   11.5208 O   0  0  0  0  0  0  0  0  0  0  0  0
   -7.7264  -14.5390   11.7020 N   0  0  0  0  0  0  0  0  0  0  0  0
   -8.1889  -15.8197   11.5323 C   0  0  0  0  0  0  0  0  0  0  0  0
   -9.4747  -16.2039   11.8163 N   0  0  0  0  0  0  0  0  0  0  0  0
   -9.5964  -17.5375   11.5379 C   0  0  0  0  0  0  0  0  0  0  0  0
  -10.6643  -18.4283   11.6415 C   0  0  0  0  0  0  0  0  0  0  0  0
  -10.4051  -19.7586   11.2778 C   0  0  0  0  0  0  0  0  0  0  0  0
   -9.1530  -20.1507   10.7795 C   0  0  0  0  0  0  0  0  0  0  0  0
   -8.1017  -19.2294   10.6839 C   0  0  0  0  0  0  0  0  0  0  0  0
   -8.3349  -17.9032   11.0783 C   0  0  0  0  0  0  0  0  0  0  0  0
   -7.4773  -16.8281   11.0838 N   0  0  0  0  0  0  0  0  0  0  0  0
   -8.8530  -21.7658   10.2429 Cl  0  0  0  0  0  0  0  0  0  0  0  0
  -11.4669  -20.6323   11.3734 O   0  0  0  0  0  0  0  0  0  0  0  0
  -12.5262  -20.4408   10.5053 C   0  0  0  0  0  0  0  0  0  0  0  0
  -13.3188  -19.2846   10.5304 C   0  0  0  0  0  0  0  0  0  0  0  0
  -14.3665  -19.1344    9.6224 C   0  0  0  0  0  0  0  0  0  0  0  0
  -14.6219  -20.1279    8.6796 C   0  0  0  0  0  0  0  0  0  0  0  0
  -13.8238  -21.2756    8.6345 C   0  0  0  0  0  0  0  0  0  0  0  0
  -12.7674  -21.4342    9.5416 C   0  0  0  0  0  0  0  0  0  0  0  0
  -11.7588  -22.8458    9.4996 Cl  0  0  0  0  0  0  0  0  0  0  0  0
  -14.1988  -22.4584    7.4296 Cl  0  0  0  0  0  0  0  0  0  0  0  0
  1  2  1  0
  2  3  2  0
  2  4  1  0
  4  5  1  0
  5  6  1  0
  5 13  2  0
  6  7  1  0
  7  8  2  0
  7 12  1  0
  8  9  1  0
  9 10  2  0
  9 15  1  0
 10 11  1  0
 10 14  1  0
 11 12  2  0
 12 13  1  0
 15 16  1  0
 16 17  2  0
 16 21  1  0
 17 18  1  0
 18 19  2  0
 19 20  1  0
 20 21  2  0
 20 23  1  0
 21 22  1  0
M  END
>  <Gold.Gold.Protein.RotatedWaterAtoms>  (665) 


>  <Gold.Id.Protein>  (665) 


>  <Gold.PLP.Chemscore.CHOScore>  (665) 
0.0000

>  <Gold.PLP.Chemscore.Hbond>  (665) 
1.0000

>  <Gold.PLP.Chemscore.Internal.Correction>  (665) 
0.0086

>  <Gold.PLP.Chemscore.Metal>  (665) 
0.0000

>  <Gold.PLP.Fitness>  (665) 
50.7139

>  <Gold.PLP.PLP>  (665) 
-48.1706

>  <Gold.PLP.ligand.clash>  (665) 
0.0000

>  <Gold.PLP.ligand.torsion>  (665) 
0.2327

>  <Gold.PLP.part.buried>  (665) 
-6.5205

>  <Gold.PLP.part.hbond>  (665) 
-2.0000

>  <Gold.PLP.part.metal>  (665) 
0.0000

>  <Gold.PLP.part.nonpolar>  (665) 
-39.3857

>  <Gold.PLP.part.repulsive>  (665) 
0.3298

>  <Gold.Protein.RotatedAtoms>  (665) 


>  <Gold.Protein.RotatedTorsions>  (665) 


>  <Gold.Protein.RotatedWaterAtoms>  (665) 


>  <Gold.Version>  (665) 
5.3.0

>  <PLP.Chemscore.CHOScore>  (665) 


>  <PLP.Chemscore.Hbond>  (665) 


>  <PLP.Chemscore.Internal.Correction>  (665) 


>  <PLP.Chemscore.Metal>  (665) 


>  <PLP.Fitness>  (665) 


>  <PLP.PLP>  (665) 


>  <PLP.ligand.clash>  (665) 


>  <PLP.ligand.torsion>  (665) 


>  <PLP.part.buried>  (665) 


>  <PLP.part.hbond>  (665) 


>  <PLP.part.metal>  (665) 


>  <PLP.part.nonpolar>  (665) 


>  <PLP.part.repulsive>  (665) 


>  <RMSD>  (665) 
0.439733510035

>  <Torsion>  (665) 
177.672185574

>  <TorsionO>  (665) 
4.31728583372

>  <TorsionR>  (665) 
173.35489974

>  <Version>  (665) 


>  <product>  (665) 
11|Compound_8|Compounds_3D_F|sdf|4|dock1|1

>  <rmsd>  (665) 
-1

$$$$
70|Compound_26|Compounds_3D_F|sdf|12|dock2|1
     RDKit          3D

  9  8  0  0  0  0  0  0  0  0999 V2000
   -4.6002  -12.5205   13.3464 O   0  0  0  0  0  0  0  0  0  0  0  0
   -5.5826  -12.1641   12.5052 C   0  0  0  0  0  0  0  0  0  0  0  0
   -5.7267  -11.0032   12.2002 O   0  0  0  0  0  0  0  0  0  0  0  0
   -6.5079  -13.2110   11.9403 C   0  0  0  0  0  0  0  0  0  0  0  0
   -6.1414  -14.5806   12.5153 C   0  0  0  0  0  0  0  0  0  0  0  0
   -5.0016  -15.1313   11.7775 N   0  0  0  0  0  0  0  0  0  0  0  0
   -4.6108  -16.4027   11.9921 C   0  0  0  0  0  0  0  0  0  0  0  0
   -5.2021  -17.0918   12.7957 O   0  0  0  0  0  0  0  0  0  0  0  0
   -3.3903  -16.9933   11.2003 B   0  0  0  0  0  0  0  0  0  0  0  0
  1  2  1  0
  2  3  2  0
  2  4  1  0
  4  5  1  0
  5  6  1  0
  6  7  1  0
  7  8  2  0
  7  9  1  0
M  END
>  <Gold.Gold.Protein.RotatedWaterAtoms>  (666) 


>  <Gold.Id.Protein>  (666) 


>  <Gold.PLP.Chemscore.CHOScore>  (666) 
0.0000

>  <Gold.PLP.Chemscore.Hbond>  (666) 
2.0000

>  <Gold.PLP.Chemscore.Internal.Correction>  (666) 
0.0004

>  <Gold.PLP.Chemscore.Metal>  (666) 
0.0000

>  <Gold.PLP.Fitness>  (666) 
31.7989

>  <Gold.PLP.PLP>  (666) 
-27.7443

>  <Gold.PLP.ligand.clash>  (666) 
1.6667

>  <Gold.PLP.ligand.torsion>  (666) 
0.1395

>  <Gold.PLP.part.buried>  (666) 
-7.0468

>  <Gold.PLP.part.hbond>  (666) 
-4.0000

>  <Gold.PLP.part.metal>  (666) 
0.0000

>  <Gold.PLP.part.nonpolar>  (666) 
-17.2366

>  <Gold.PLP.part.repulsive>  (666) 
0.4522

>  <Gold.Protein.RotatedAtoms>  (666) 


>  <Gold.Protein.RotatedTorsions>  (666) 


>  <Gold.Protein.RotatedWaterAtoms>  (666) 


>  <Gold.Version>  (666) 
5.3.0

>  <PLP.Chemscore.CHOScore>  (666) 


>  <PLP.Chemscore.Hbond>  (666) 


>  <PLP.Chemscore.Internal.Correction>  (666) 


>  <PLP.Chemscore.Metal>  (666) 


>  <PLP.Fitness>  (666) 


>  <PLP.PLP>  (666) 


>  <PLP.ligand.clash>  (666) 


>  <PLP.ligand.torsion>  (666) 


>  <PLP.part.buried>  (666) 


>  <PLP.part.hbond>  (666) 


>  <PLP.part.metal>  (666) 


>  <PLP.part.nonpolar>  (666) 


>  <PLP.part.repulsive>  (666) 


>  <Version>  (666) 


$$$$
94|664022_40|Aromatic_carboxylic_acids_F|sdf|24|dock1|1
     RDKit          3D

 12 12  0  0  0  0  0  0  0  0999 V2000
   -8.2596  -17.1212   11.4595 C   0  0  0  0  0  0  0  0  0  0  0  0
   -7.6366  -15.8367   11.6688 N   0  0  0  0  0  0  0  0  0  0  0  0
   -8.3409  -14.6553   11.5719 C   0  0  0  0  0  0  0  0  0  0  0  0
   -9.5296  -14.5547   11.2978 O   0  0  0  0  0  0  0  0  0  0  0  0
   -7.5420  -13.4431   11.8503 C   0  0  0  0  0  0  0  0  0  0  0  0
   -8.1627  -12.1983   11.6738 C   0  0  0  0  0  0  0  0  0  0  0  0
   -7.4390  -11.0301   11.9055 C   0  0  0  0  0  0  0  0  0  0  0  0
   -6.1069  -11.0910   12.3103 C   0  0  0  0  0  0  0  0  0  0  0  0
   -5.4897  -12.3324   12.4853 C   0  0  0  0  0  0  0  0  0  0  0  0
   -6.2035  -13.5136   12.2549 C   0  0  0  0  0  0  0  0  0  0  0  0
   -5.3062  -15.1564   12.5638 Br  0  0  0  0  0  0  0  0  0  0  0  0
   -8.1960   -9.5005   11.6887 Cl  0  0  0  0  0  0  0  0  0  0  0  0
  1  2  1  0
  2  3  1  0
  3  4  2  0
  3  5  1  0
  5  6  2  0
  5 10  1  0
  6  7  1  0
  7  8  2  0
  7 12  1  0
  8  9  1  0
  9 10  2  0
 10 11  1  0
M  END
>  <Gold.Gold.Protein.RotatedWaterAtoms>  (667) 


>  <Gold.Id.Protein>  (667) 


>  <Gold.PLP.Chemscore.CHOScore>  (667) 
0.0000

>  <Gold.PLP.Chemscore.Hbond>  (667) 
0.4160

>  <Gold.PLP.Chemscore.Internal.Correction>  (667) 
0.0004

>  <Gold.PLP.Chemscore.Metal>  (667) 
0.0000

>  <Gold.PLP.Fitness>  (667) 
48.9046

>  <Gold.PLP.PLP>  (667) 
-47.6744

>  <Gold.PLP.ligand.clash>  (667) 
0.0000

>  <Gold.PLP.ligand.torsion>  (667) 
0.0091

>  <Gold.PLP.part.buried>  (667) 
-7.3578

>  <Gold.PLP.part.hbond>  (667) 
-0.5127

>  <Gold.PLP.part.metal>  (667) 
0.0000

>  <Gold.PLP.part.nonpolar>  (667) 
-40.3098

>  <Gold.PLP.part.repulsive>  (667) 
0.1684

>  <Gold.Protein.RotatedAtoms>  (667) 


>  <Gold.Protein.RotatedTorsions>  (667) 


>  <Gold.Protein.RotatedWaterAtoms>  (667) 


>  <Gold.Version>  (667) 
5.3.0

>  <PLP.Chemscore.CHOScore>  (667) 


>  <PLP.Chemscore.Hbond>  (667) 


>  <PLP.Chemscore.Internal.Correction>  (667) 


>  <PLP.Chemscore.Metal>  (667) 


>  <PLP.Fitness>  (667) 


>  <PLP.PLP>  (667) 


>  <PLP.ligand.clash>  (667) 


>  <PLP.ligand.torsion>  (667) 


>  <PLP.part.buried>  (667) 


>  <PLP.part.hbond>  (667) 


>  <PLP.part.metal>  (667) 


>  <PLP.part.nonpolar>  (667) 


>  <PLP.part.repulsive>  (667) 


>  <RMSD>  (667) 
0.30972197429

>  <Torsion>  (667) 
172.929186758

>  <TorsionO>  (667) 
24.4968065243

>  <TorsionR>  (667) 
162.574006718

>  <Version>  (667) 


>  <product>  (667) 
70|Compound_26|Compounds_3D_F|sdf|12|dock2|1

>  <rmsd>  (667) 
-1

$$$$
110|565385_49|Aromatic_carboxylic_acids_F|sdf|29|dock1|1
     RDKit          3D

 13 13  0  0  0  0  0  0  0  0999 V2000
  -10.1118  -17.9021   11.6320 C   0  0  0  0  0  0  0  0  0  0  0  0
   -9.7537  -16.5043   11.6546 N   0  0  0  0  0  0  0  0  0  0  0  0
   -8.4330  -16.1187   11.7930 C   0  0  0  0  0  0  0  0  0  0  0  0
   -7.5159  -16.9298   11.9008 O   0  0  0  0  0  0  0  0  0  0  0  0
   -8.1234  -14.6552   11.8105 C   0  0  0  0  0  0  0  0  0  0  0  0
   -9.0636  -13.6551   11.5375 C   0  0  0  0  0  0  0  0  0  0  0  0
   -8.6966  -12.3009   11.5726 C   0  0  0  0  0  0  0  0  0  0  0  0
   -7.3879  -11.9195   11.8809 C   0  0  0  0  0  0  0  0  0  0  0  0
   -6.4486  -12.9235   12.1551 C   0  0  0  0  0  0  0  0  0  0  0  0
   -6.8098  -14.2750   12.1207 C   0  0  0  0  0  0  0  0  0  0  0  0
   -4.6444  -12.5025   12.5849 Br  0  0  0  0  0  0  0  0  0  0  0  0
   -6.9476  -10.6242   11.9372 O   0  0  0  0  0  0  0  0  0  0  0  0
   -7.9020   -9.5910   11.7256 C   0  0  0  0  0  0  0  0  0  0  0  0
  1  2  1  0
  2  3  1  0
  3  4  2  0
  3  5  1  0
  5  6  2  0
  5 10  1  0
  6  7  1  0
  7  8  2  0
  8  9  1  0
  8 12  1  0
  9 10  2  0
  9 11  1  0
 12 13  1  0
M  END
>  <Gold.Gold.Protein.RotatedWaterAtoms>  (668) 


>  <Gold.Id.Protein>  (668) 


>  <Gold.PLP.Chemscore.CHOScore>  (668) 
0.0000

>  <Gold.PLP.Chemscore.Hbond>  (668) 
1.0000

>  <Gold.PLP.Chemscore.Internal.Correction>  (668) 
0.0000

>  <Gold.PLP.Chemscore.Metal>  (668) 
0.0000

>  <Gold.PLP.Fitness>  (668) 
43.9775

>  <Gold.PLP.PLP>  (668) 
-41.0517

>  <Gold.PLP.ligand.clash>  (668) 
0.0000

>  <Gold.PLP.ligand.torsion>  (668) 
0.0371

>  <Gold.PLP.part.buried>  (668) 
-3.7367

>  <Gold.PLP.part.hbond>  (668) 
-1.0000

>  <Gold.PLP.part.metal>  (668) 
0.0000

>  <Gold.PLP.part.nonpolar>  (668) 
-36.7483

>  <Gold.PLP.part.repulsive>  (668) 
0.4054

>  <Gold.Protein.RotatedAtoms>  (668) 


>  <Gold.Protein.RotatedTorsions>  (668) 


>  <Gold.Protein.RotatedWaterAtoms>  (668) 


>  <Gold.Version>  (668) 
5.3.0

>  <PLP.Chemscore.CHOScore>  (668) 


>  <PLP.Chemscore.Hbond>  (668) 


>  <PLP.Chemscore.Internal.Correction>  (668) 


>  <PLP.Chemscore.Metal>  (668) 


>  <PLP.Fitness>  (668) 


>  <PLP.PLP>  (668) 


>  <PLP.ligand.clash>  (668) 


>  <PLP.ligand.torsion>  (668) 


>  <PLP.part.buried>  (668) 


>  <PLP.part.hbond>  (668) 


>  <PLP.part.metal>  (668) 


>  <PLP.part.nonpolar>  (668) 


>  <PLP.part.repulsive>  (668) 


>  <RMSD>  (668) 
0.319376411377

>  <Torsion>  (668) 
169.460450784

>  <TorsionO>  (668) 
9.7963905484

>  <TorsionR>  (668) 
179.256841332

>  <Version>  (668) 


>  <product>  (668) 
70|Compound_26|Compounds_3D_F|sdf|12|dock2|1

>  <rmsd>  (668) 
-1

$$$$
128|137677_56|Aromatic_carboxylic_acids_F|sdf|33|dock1|1
     RDKit          3D

 11 11  0  0  0  0  0  0  0  0999 V2000
   -8.6116  -16.1544   11.8887 C   0  0  0  0  0  0  0  0  0  0  0  0
   -7.9978  -14.8484   11.9215 N   0  0  0  0  0  0  0  0  0  0  0  0
   -8.7778  -13.7008   11.8756 C   0  0  0  0  0  0  0  0  0  0  0  0
  -10.0002  -13.7896   11.8139 O   0  0  0  0  0  0  0  0  0  0  0  0
   -8.0808  -12.3609   11.9017 C   0  0  0  0  0  0  0  0  0  0  0  0
   -8.7916  -11.1851   11.5813 C   0  0  0  0  0  0  0  0  0  0  0  0
   -8.1781   -9.9267   11.5989 C   0  0  0  0  0  0  0  0  0  0  0  0
   -6.8391   -9.8089   11.9369 C   0  0  0  0  0  0  0  0  0  0  0  0
   -6.1124  -10.9502   12.2575 C   0  0  0  0  0  0  0  0  0  0  0  0
   -6.7171  -12.2196   12.2428 C   0  0  0  0  0  0  0  0  0  0  0  0
   -5.5419  -13.6455   12.7121 Br  0  0  0  0  0  0  0  0  0  0  0  0
  1  2  1  0
  2  3  1  0
  3  4  2  0
  3  5  1  0
  5  6  2  0
  5 10  1  0
  6  7  1  0
  7  8  2  0
  8  9  1  0
  9 10  2  0
 10 11  1  0
M  END
>  <Gold.Gold.Protein.RotatedWaterAtoms>  (669) 


>  <Gold.Id.Protein>  (669) 


>  <Gold.PLP.Chemscore.CHOScore>  (669) 
0.0000

>  <Gold.PLP.Chemscore.Hbond>  (669) 
1.0000

>  <Gold.PLP.Chemscore.Internal.Correction>  (669) 
0.0000

>  <Gold.PLP.Chemscore.Metal>  (669) 
0.0000

>  <Gold.PLP.Fitness>  (669) 
45.2899

>  <Gold.PLP.PLP>  (669) 
-42.4444

>  <Gold.PLP.ligand.clash>  (669) 
0.0000

>  <Gold.PLP.ligand.torsion>  (669) 
0.0772

>  <Gold.PLP.part.buried>  (669) 
-6.4690

>  <Gold.PLP.part.hbond>  (669) 
-0.6863

>  <Gold.PLP.part.metal>  (669) 
0.0000

>  <Gold.PLP.part.nonpolar>  (669) 
-34.8280

>  <Gold.PLP.part.repulsive>  (669) 
0.1963

>  <Gold.Protein.RotatedAtoms>  (669) 


>  <Gold.Protein.RotatedTorsions>  (669) 


>  <Gold.Protein.RotatedWaterAtoms>  (669) 


>  <Gold.Version>  (669) 
5.3.0

>  <PLP.Chemscore.CHOScore>  (669) 


>  <PLP.Chemscore.Hbond>  (669) 


>  <PLP.Chemscore.Internal.Correction>  (669) 


>  <PLP.Chemscore.Metal>  (669) 


>  <PLP.Fitness>  (669) 


>  <PLP.PLP>  (669) 


>  <PLP.ligand.clash>  (669) 


>  <PLP.ligand.torsion>  (669) 


>  <PLP.part.buried>  (669) 


>  <PLP.part.hbond>  (669) 


>  <PLP.part.metal>  (669) 


>  <PLP.part.nonpolar>  (669) 


>  <PLP.part.repulsive>  (669) 


>  <RMSD>  (669) 
0.428070490903

>  <Torsion>  (669) 
152.444048788

>  <TorsionO>  (669) 
39.0580871276

>  <TorsionR>  (669) 
168.497864085

>  <Version>  (669) 


>  <product>  (669) 
70|Compound_26|Compounds_3D_F|sdf|12|dock2|1

>  <rmsd>  (669) 
-1

$$$$
974|750794_1404|Aromatic_primary_amines_F|sdf|194|dock3|1
     RDKit          3D

 14 14  0  0  0  0  0  0  0  0999 V2000
  -13.6355  -18.1936    9.4145 C   0  0  0  0  0  0  0  0  0  0  0  0
  -13.2544  -19.4497   10.1732 C   0  0  0  0  0  0  0  0  0  0  0  0
  -11.8731  -19.3506   10.5383 O   0  0  0  0  0  0  0  0  0  0  0  0
  -11.6148  -18.5085   11.5823 C   0  0  0  0  0  0  0  0  0  0  0  0
  -12.3947  -18.2810   12.5004 O   0  0  0  0  0  0  0  0  0  0  0  0
  -10.3031  -17.8985   11.4902 C   0  0  0  0  0  0  0  0  0  0  0  0
   -9.1673  -18.4974   10.9931 C   0  0  0  0  0  0  0  0  0  0  0  0
   -8.1448  -17.6055   11.0758 O   0  0  0  0  0  0  0  0  0  0  0  0
   -8.7110  -16.4917   11.6237 C   0  0  0  0  0  0  0  0  0  0  0  0
   -9.9933  -16.6110   11.8915 N   0  0  0  0  0  0  0  0  0  0  0  0
   -7.9611  -15.3718   11.8549 N   0  0  0  0  0  0  0  0  0  0  0  0
   -8.5046  -14.1249   12.0676 C   0  0  0  0  0  0  0  0  0  0  0  0
   -9.6950  -13.8313   12.1035 O   0  0  0  0  0  0  0  0  0  0  0  0
   -7.4448  -13.0785   12.3021 C   0  0  0  0  0  0  0  0  0  0  0  0
  1  2  1  0
  2  3  1  0
  3  4  1  0
  4  5  2  0
  4  6  1  0
  6  7  2  0
  6 10  1  0
  7  8  1  0
  8  9  1  0
  9 10  2  0
  9 11  1  0
 11 12  1  0
 12 13  2  0
 12 14  1  0
M  END
>  <Gold.Gold.Protein.RotatedWaterAtoms>  (670) 


>  <Gold.Id.Protein>  (670) 


>  <Gold.PLP.Chemscore.CHOScore>  (670) 
0.0000

>  <Gold.PLP.Chemscore.Hbond>  (670) 
2.0000

>  <Gold.PLP.Chemscore.Internal.Correction>  (670) 
0.0053

>  <Gold.PLP.Chemscore.Metal>  (670) 
0.0000

>  <Gold.PLP.Fitness>  (670) 
36.8047

>  <Gold.PLP.PLP>  (670) 
-32.7996

>  <Gold.PLP.ligand.clash>  (670) 
0.0000

>  <Gold.PLP.ligand.torsion>  (670) 
1.0001

>  <Gold.PLP.part.buried>  (670) 
-6.5206

>  <Gold.PLP.part.hbond>  (670) 
-2.9156

>  <Gold.PLP.part.metal>  (670) 
0.0000

>  <Gold.PLP.part.nonpolar>  (670) 
-23.4080

>  <Gold.PLP.part.repulsive>  (670) 
0.3100

>  <Gold.Protein.RotatedAtoms>  (670) 


>  <Gold.Protein.RotatedTorsions>  (670) 


>  <Gold.Protein.RotatedWaterAtoms>  (670) 


>  <Gold.Version>  (670) 
5.3.0

>  <PLP.Chemscore.CHOScore>  (670) 


>  <PLP.Chemscore.Hbond>  (670) 


>  <PLP.Chemscore.Internal.Correction>  (670) 


>  <PLP.Chemscore.Metal>  (670) 


>  <PLP.Fitness>  (670) 


>  <PLP.PLP>  (670) 


>  <PLP.ligand.clash>  (670) 


>  <PLP.ligand.torsion>  (670) 


>  <PLP.part.buried>  (670) 


>  <PLP.part.hbond>  (670) 


>  <PLP.part.metal>  (670) 


>  <PLP.part.nonpolar>  (670) 


>  <PLP.part.repulsive>  (670) 


>  <RMSD>  (670) 
0.499949349045

>  <Torsion>  (670) 
159.973716791

>  <TorsionO>  (670) 
19.1052109979

>  <TorsionR>  (670) 
179.078927789

>  <Version>  (670) 


>  <product>  (670) 
70|Compound_26|Compounds_3D_F|sdf|12|dock2|1

>  <rmsd>  (670) 
-1

$$$$
1884|M3006_1781|Aromatic_primary_amines_F|sdf|361|dock3|1
     RDKit          3D

 31 34  0  0  0  0  0  0  0  0999 V2000
  -14.4210  -19.8971    8.7934 C   0  0  0  0  0  0  0  0  0  0  0  0
  -13.9762  -19.4927   10.1894 C   0  0  0  0  0  0  0  0  0  0  0  0
  -14.1356  -20.6409   11.1817 C   0  0  0  0  0  0  0  0  0  0  0  0
  -13.5197  -20.3070   12.5189 C   0  0  0  0  0  0  0  0  0  0  0  0
  -12.9307  -19.2724   12.7954 O   0  0  0  0  0  0  0  0  0  0  0  0
  -13.7110  -21.3451   13.3845 O   0  0  0  0  0  0  0  0  0  0  0  0
  -12.9425  -21.2698   14.5900 C   0  0  0  0  0  0  0  0  0  0  0  0
  -12.8849  -22.6189   15.2889 C   0  0  0  0  0  0  0  0  0  0  0  0
  -11.6552  -22.4172   16.1494 C   0  0  0  0  0  0  0  0  0  0  0  0
  -11.2420  -23.7410   16.7624 C   0  0  0  0  0  0  0  0  0  0  0  0
  -12.3024  -24.2223   17.5862 O   0  0  0  0  0  0  0  0  0  0  0  0
  -13.7888  -24.3384   16.9603 P   0  0  0  0  0  0  0  0  0  0  0  0
  -14.8775  -24.6795   17.9243 O   0  0  0  0  0  0  0  0  0  0  0  0
  -13.9839  -22.9641   16.1174 O   0  0  0  0  0  0  0  0  0  0  0  0
  -13.5991  -25.4435   15.8075 O   0  0  0  0  0  0  0  0  0  0  0  0
  -10.6922  -21.8161   15.2889 O   0  0  0  0  0  0  0  0  0  0  0  0
  -11.4338  -20.9664   14.3653 C   0  0  0  0  0  0  0  0  0  0  0  0
  -10.9052  -21.2017   13.0342 N   0  0  0  0  0  0  0  0  0  0  0  0
  -10.7814  -22.4114   12.4013 C   0  0  0  0  0  0  0  0  0  0  0  0
  -10.2640  -22.2918   11.1953 N   0  0  0  0  0  0  0  0  0  0  0  0
  -10.0274  -20.9476   11.0424 C   0  0  0  0  0  0  0  0  0  0  0  0
  -10.4203  -20.2487   12.1733 C   0  0  0  0  0  0  0  0  0  0  0  0
  -10.3338  -18.9216   12.3641 N   0  0  0  0  0  0  0  0  0  0  0  0
   -9.8057  -18.2730   11.3024 C   0  0  0  0  0  0  0  0  0  0  0  0
   -9.3808  -18.8370   10.1545 N   0  0  0  0  0  0  0  0  0  0  0  0
   -9.4895  -20.1691   10.0244 C   0  0  0  0  0  0  0  0  0  0  0  0
   -9.0330  -20.6622    8.8349 O   0  0  0  0  0  0  0  0  0  0  0  0
   -9.7222  -16.8901   11.4793 N   0  0  0  0  0  0  0  0  0  0  0  0
   -8.5796  -16.1798   11.7761 C   0  0  0  0  0  0  0  0  0  0  0  0
   -7.4445  -16.6221   11.9131 O   0  0  0  0  0  0  0  0  0  0  0  0
   -8.8524  -14.7024   11.8973 C   0  0  0  0  0  0  0  0  0  0  0  0
  1  2  1  0
  2  3  1  0
  3  4  1  0
  4  5  2  0
  4  6  1  0
  6  7  1  0
  7  8  1  0
  7 17  1  0
  8  9  1  0
  8 14  1  0
  9 10  1  0
  9 16  1  0
 10 11  1  0
 11 12  1  0
 12 13  2  0
 12 14  1  0
 12 15  1  0
 16 17  1  0
 17 18  1  0
 18 19  1  0
 18 22  1  0
 19 20  2  0
 20 21  1  0
 21 22  2  0
 21 26  1  0
 22 23  1  0
 23 24  2  0
 24 25  1  0
 24 28  1  0
 25 26  2  0
 26 27  1  0
 28 29  1  0
 29 30  2  0
 29 31  1  0
M  END
>  <Gold.Gold.Protein.RotatedWaterAtoms>  (671) 


>  <Gold.Id.Protein>  (671) 


>  <Gold.PLP.Chemscore.CHOScore>  (671) 
0.0000

>  <Gold.PLP.Chemscore.Hbond>  (671) 
1.2080

>  <Gold.PLP.Chemscore.Internal.Correction>  (671) 
0.1232

>  <Gold.PLP.Chemscore.Metal>  (671) 
0.0000

>  <Gold.PLP.Fitness>  (671) 
47.7145

>  <Gold.PLP.PLP>  (671) 
-46.0218

>  <Gold.PLP.ligand.clash>  (671) 
0.0000

>  <Gold.PLP.ligand.torsion>  (671) 
1.0272

>  <Gold.PLP.part.buried>  (671) 
-2.2958

>  <Gold.PLP.part.hbond>  (671) 
-4.0214

>  <Gold.PLP.part.metal>  (671) 
0.0000

>  <Gold.PLP.part.nonpolar>  (671) 
-41.4699

>  <Gold.PLP.part.repulsive>  (671) 
0.9524

>  <Gold.Protein.RotatedAtoms>  (671) 


>  <Gold.Protein.RotatedTorsions>  (671) 


>  <Gold.Protein.RotatedWaterAtoms>  (671) 


>  <Gold.Version>  (671) 
5.3.0

>  <PLP.Chemscore.CHOScore>  (671) 


>  <PLP.Chemscore.Hbond>  (671) 


>  <PLP.Chemscore.Internal.Correction>  (671) 


>  <PLP.Chemscore.Metal>  (671) 


>  <PLP.Fitness>  (671) 


>  <PLP.PLP>  (671) 


>  <PLP.ligand.clash>  (671) 


>  <PLP.ligand.torsion>  (671) 


>  <PLP.part.buried>  (671) 


>  <PLP.part.hbond>  (671) 


>  <PLP.part.metal>  (671) 


>  <PLP.part.nonpolar>  (671) 


>  <PLP.part.repulsive>  (671) 


>  <RMSD>  (671) 
0.291955871297

>  <Torsion>  (671) 
171.923704933

>  <TorsionO>  (671) 
6.03609353985

>  <TorsionR>  (671) 
177.959798473

>  <Version>  (671) 


>  <product>  (671) 
70|Compound_26|Compounds_3D_F|sdf|12|dock2|1

>  <rmsd>  (671) 
-1

$$$$
193|32168_281|Aromatic_primary_amines_F|sdf|39|dock6|1
     RDKit          3D

 23 25  0  0  0  0  0  0  0  0999 V2000
   -7.8439  -12.1461   11.8919 C   0  0  0  0  0  0  0  0  0  0  0  0
   -8.5691  -13.4472   11.6781 C   0  0  0  0  0  0  0  0  0  0  0  0
   -9.7886  -13.4981   11.5208 O   0  0  0  0  0  0  0  0  0  0  0  0
   -7.7264  -14.5390   11.7020 N   0  0  0  0  0  0  0  0  0  0  0  0
   -8.1889  -15.8197   11.5323 C   0  0  0  0  0  0  0  0  0  0  0  0
   -9.4747  -16.2039   11.8163 N   0  0  0  0  0  0  0  0  0  0  0  0
   -9.5964  -17.5375   11.5379 C   0  0  0  0  0  0  0  0  0  0  0  0
  -10.6643  -18.4283   11.6415 C   0  0  0  0  0  0  0  0  0  0  0  0
  -10.4051  -19.7586   11.2778 C   0  0  0  0  0  0  0  0  0  0  0  0
   -9.1530  -20.1507   10.7795 C   0  0  0  0  0  0  0  0  0  0  0  0
   -8.1017  -19.2294   10.6839 C   0  0  0  0  0  0  0  0  0  0  0  0
   -8.3349  -17.9032   11.0783 C   0  0  0  0  0  0  0  0  0  0  0  0
   -7.4773  -16.8281   11.0838 N   0  0  0  0  0  0  0  0  0  0  0  0
   -8.8530  -21.7658   10.2429 Cl  0  0  0  0  0  0  0  0  0  0  0  0
  -11.4669  -20.6323   11.3734 O   0  0  0  0  0  0  0  0  0  0  0  0
  -12.5262  -20.4408   10.5053 C   0  0  0  0  0  0  0  0  0  0  0  0
  -13.3188  -19.2846   10.5304 C   0  0  0  0  0  0  0  0  0  0  0  0
  -14.3665  -19.1344    9.6224 C   0  0  0  0  0  0  0  0  0  0  0  0
  -14.6219  -20.1279    8.6796 C   0  0  0  0  0  0  0  0  0  0  0  0
  -13.8238  -21.2756    8.6345 C   0  0  0  0  0  0  0  0  0  0  0  0
  -12.7674  -21.4342    9.5416 C   0  0  0  0  0  0  0  0  0  0  0  0
  -11.7588  -22.8458    9.4996 Cl  0  0  0  0  0  0  0  0  0  0  0  0
  -14.1988  -22.4584    7.4296 Cl  0  0  0  0  0  0  0  0  0  0  0  0
  1  2  1  0
  2  3  2  0
  2  4  1  0
  4  5  1  0
  5  6  1  0
  5 13  2  0
  6  7  1  0
  7  8  2  0
  7 12  1  0
  8  9  1  0
  9 10  2  0
  9 15  1  0
 10 11  1  0
 10 14  1  0
 11 12  2  0
 12 13  1  0
 15 16  1  0
 16 17  2  0
 16 21  1  0
 17 18  1  0
 18 19  2  0
 19 20  1  0
 20 21  2  0
 20 23  1  0
 21 22  1  0
M  END
>  <Gold.Gold.Protein.RotatedWaterAtoms>  (672) 


>  <Gold.Id.Protein>  (672) 


>  <Gold.PLP.Chemscore.CHOScore>  (672) 
0.0000

>  <Gold.PLP.Chemscore.Hbond>  (672) 
1.0000

>  <Gold.PLP.Chemscore.Internal.Correction>  (672) 
0.0086

>  <Gold.PLP.Chemscore.Metal>  (672) 
0.0000

>  <Gold.PLP.Fitness>  (672) 
50.7139

>  <Gold.PLP.PLP>  (672) 
-48.1706

>  <Gold.PLP.ligand.clash>  (672) 
0.0000

>  <Gold.PLP.ligand.torsion>  (672) 
0.2327

>  <Gold.PLP.part.buried>  (672) 
-6.5205

>  <Gold.PLP.part.hbond>  (672) 
-2.0000

>  <Gold.PLP.part.metal>  (672) 
0.0000

>  <Gold.PLP.part.nonpolar>  (672) 
-39.3857

>  <Gold.PLP.part.repulsive>  (672) 
0.3298

>  <Gold.Protein.RotatedAtoms>  (672) 


>  <Gold.Protein.RotatedTorsions>  (672) 


>  <Gold.Protein.RotatedWaterAtoms>  (672) 


>  <Gold.Version>  (672) 
5.3.0

>  <PLP.Chemscore.CHOScore>  (672) 


>  <PLP.Chemscore.Hbond>  (672) 


>  <PLP.Chemscore.Internal.Correction>  (672) 


>  <PLP.Chemscore.Metal>  (672) 


>  <PLP.Fitness>  (672) 


>  <PLP.PLP>  (672) 


>  <PLP.ligand.clash>  (672) 


>  <PLP.ligand.torsion>  (672) 


>  <PLP.part.buried>  (672) 


>  <PLP.part.hbond>  (672) 


>  <PLP.part.metal>  (672) 


>  <PLP.part.nonpolar>  (672) 


>  <PLP.part.repulsive>  (672) 


>  <RMSD>  (672) 
0.439733510035

>  <Torsion>  (672) 
177.672185574

>  <TorsionO>  (672) 
4.31728583372

>  <TorsionR>  (672) 
173.35489974

>  <Version>  (672) 


>  <product>  (672) 
70|Compound_26|Compounds_3D_F|sdf|12|dock2|1

>  <rmsd>  (672) 
-1

$$$$
75|Compound_31|Compounds_3D_F|sdf|13|dock1|1
     RDKit          3D

 10  9  0  0  0  0  0  0  0  0999 V2000
   -4.8012  -12.3294   13.2109 O   0  0  0  0  0  0  0  0  0  0  0  0
   -5.9155  -12.1004   12.5000 C   0  0  0  0  0  0  0  0  0  0  0  0
   -6.2217  -10.9694   12.2022 O   0  0  0  0  0  0  0  0  0  0  0  0
   -6.7872  -13.2532   12.0725 C   0  0  0  0  0  0  0  0  0  0  0  0
   -7.8714  -13.3980   12.9915 O   0  0  0  0  0  0  0  0  0  0  0  0
   -5.9588  -14.5396   12.0545 C   0  0  0  0  0  0  0  0  0  0  0  0
   -5.6461  -14.8998   10.6687 N   0  0  0  0  0  0  0  0  0  0  0  0
   -6.6396  -15.2021    9.8101 C   0  0  0  0  0  0  0  0  0  0  0  0
   -7.7926  -15.1763   10.1849 O   0  0  0  0  0  0  0  0  0  0  0  0
   -6.3043  -15.5871    8.3258 B   0  0  0  0  0  0  0  0  0  0  0  0
  1  2  1  0
  2  3  2  0
  2  4  1  0
  4  5  1  0
  4  6  1  0
  6  7  1  0
  7  8  1  0
  8  9  2  0
  8 10  1  0
M  END
>  <Gold.Gold.Protein.RotatedWaterAtoms>  (673) 


>  <Gold.Id.Protein>  (673) 


>  <Gold.PLP.Chemscore.CHOScore>  (673) 
0.0000

>  <Gold.PLP.Chemscore.Hbond>  (673) 
1.9920

>  <Gold.PLP.Chemscore.Internal.Correction>  (673) 
0.0024

>  <Gold.PLP.Chemscore.Metal>  (673) 
0.0000

>  <Gold.PLP.Fitness>  (673) 
29.8842

>  <Gold.PLP.PLP>  (673) 
-26.4613

>  <Gold.PLP.ligand.clash>  (673) 
0.0000

>  <Gold.PLP.ligand.torsion>  (673) 
1.2778

>  <Gold.PLP.part.buried>  (673) 
-7.2397

>  <Gold.PLP.part.hbond>  (673) 
-4.1275

>  <Gold.PLP.part.metal>  (673) 
0.0000

>  <Gold.PLP.part.nonpolar>  (673) 
-15.7442

>  <Gold.PLP.part.repulsive>  (673) 
0.4864

>  <Gold.Protein.RotatedAtoms>  (673) 


>  <Gold.Protein.RotatedTorsions>  (673) 


>  <Gold.Protein.RotatedWaterAtoms>  (673) 


>  <Gold.Version>  (673) 
5.3.0

>  <PLP.Chemscore.CHOScore>  (673) 


>  <PLP.Chemscore.Hbond>  (673) 


>  <PLP.Chemscore.Internal.Correction>  (673) 


>  <PLP.Chemscore.Metal>  (673) 


>  <PLP.Fitness>  (673) 


>  <PLP.PLP>  (673) 


>  <PLP.ligand.clash>  (673) 


>  <PLP.ligand.torsion>  (673) 


>  <PLP.part.buried>  (673) 


>  <PLP.part.hbond>  (673) 


>  <PLP.part.metal>  (673) 


>  <PLP.part.nonpolar>  (673) 


>  <PLP.part.repulsive>  (673) 


>  <Version>  (673) 


$$$$
94|664022_40|Aromatic_carboxylic_acids_F|sdf|24|dock1|1
     RDKit          3D

 12 12  0  0  0  0  0  0  0  0999 V2000
   -8.2596  -17.1212   11.4595 C   0  0  0  0  0  0  0  0  0  0  0  0
   -7.6366  -15.8367   11.6688 N   0  0  0  0  0  0  0  0  0  0  0  0
   -8.3409  -14.6553   11.5719 C   0  0  0  0  0  0  0  0  0  0  0  0
   -9.5296  -14.5547   11.2978 O   0  0  0  0  0  0  0  0  0  0  0  0
   -7.5420  -13.4431   11.8503 C   0  0  0  0  0  0  0  0  0  0  0  0
   -8.1627  -12.1983   11.6738 C   0  0  0  0  0  0  0  0  0  0  0  0
   -7.4390  -11.0301   11.9055 C   0  0  0  0  0  0  0  0  0  0  0  0
   -6.1069  -11.0910   12.3103 C   0  0  0  0  0  0  0  0  0  0  0  0
   -5.4897  -12.3324   12.4853 C   0  0  0  0  0  0  0  0  0  0  0  0
   -6.2035  -13.5136   12.2549 C   0  0  0  0  0  0  0  0  0  0  0  0
   -5.3062  -15.1564   12.5638 Br  0  0  0  0  0  0  0  0  0  0  0  0
   -8.1960   -9.5005   11.6887 Cl  0  0  0  0  0  0  0  0  0  0  0  0
  1  2  1  0
  2  3  1  0
  3  4  2  0
  3  5  1  0
  5  6  2  0
  5 10  1  0
  6  7  1  0
  7  8  2  0
  7 12  1  0
  8  9  1  0
  9 10  2  0
 10 11  1  0
M  END
>  <Gold.Gold.Protein.RotatedWaterAtoms>  (674) 


>  <Gold.Id.Protein>  (674) 


>  <Gold.PLP.Chemscore.CHOScore>  (674) 
0.0000

>  <Gold.PLP.Chemscore.Hbond>  (674) 
0.4160

>  <Gold.PLP.Chemscore.Internal.Correction>  (674) 
0.0004

>  <Gold.PLP.Chemscore.Metal>  (674) 
0.0000

>  <Gold.PLP.Fitness>  (674) 
48.9046

>  <Gold.PLP.PLP>  (674) 
-47.6744

>  <Gold.PLP.ligand.clash>  (674) 
0.0000

>  <Gold.PLP.ligand.torsion>  (674) 
0.0091

>  <Gold.PLP.part.buried>  (674) 
-7.3578

>  <Gold.PLP.part.hbond>  (674) 
-0.5127

>  <Gold.PLP.part.metal>  (674) 
0.0000

>  <Gold.PLP.part.nonpolar>  (674) 
-40.3098

>  <Gold.PLP.part.repulsive>  (674) 
0.1684

>  <Gold.Protein.RotatedAtoms>  (674) 


>  <Gold.Protein.RotatedTorsions>  (674) 


>  <Gold.Protein.RotatedWaterAtoms>  (674) 


>  <Gold.Version>  (674) 
5.3.0

>  <PLP.Chemscore.CHOScore>  (674) 


>  <PLP.Chemscore.Hbond>  (674) 


>  <PLP.Chemscore.Internal.Correction>  (674) 


>  <PLP.Chemscore.Metal>  (674) 


>  <PLP.Fitness>  (674) 


>  <PLP.PLP>  (674) 


>  <PLP.ligand.clash>  (674) 


>  <PLP.ligand.torsion>  (674) 


>  <PLP.part.buried>  (674) 


>  <PLP.part.hbond>  (674) 


>  <PLP.part.metal>  (674) 


>  <PLP.part.nonpolar>  (674) 


>  <PLP.part.repulsive>  (674) 


>  <RMSD>  (674) 
0.30972197429

>  <Torsion>  (674) 
172.929186758

>  <TorsionO>  (674) 
24.4968065243

>  <TorsionR>  (674) 
162.574006718

>  <Version>  (674) 


>  <product>  (674) 
75|Compound_31|Compounds_3D_F|sdf|13|dock1|1

>  <rmsd>  (674) 
-1

$$$$
110|565385_49|Aromatic_carboxylic_acids_F|sdf|29|dock1|1
     RDKit          3D

 13 13  0  0  0  0  0  0  0  0999 V2000
  -10.1118  -17.9021   11.6320 C   0  0  0  0  0  0  0  0  0  0  0  0
   -9.7537  -16.5043   11.6546 N   0  0  0  0  0  0  0  0  0  0  0  0
   -8.4330  -16.1187   11.7930 C   0  0  0  0  0  0  0  0  0  0  0  0
   -7.5159  -16.9298   11.9008 O   0  0  0  0  0  0  0  0  0  0  0  0
   -8.1234  -14.6552   11.8105 C   0  0  0  0  0  0  0  0  0  0  0  0
   -9.0636  -13.6551   11.5375 C   0  0  0  0  0  0  0  0  0  0  0  0
   -8.6966  -12.3009   11.5726 C   0  0  0  0  0  0  0  0  0  0  0  0
   -7.3879  -11.9195   11.8809 C   0  0  0  0  0  0  0  0  0  0  0  0
   -6.4486  -12.9235   12.1551 C   0  0  0  0  0  0  0  0  0  0  0  0
   -6.8098  -14.2750   12.1207 C   0  0  0  0  0  0  0  0  0  0  0  0
   -4.6444  -12.5025   12.5849 Br  0  0  0  0  0  0  0  0  0  0  0  0
   -6.9476  -10.6242   11.9372 O   0  0  0  0  0  0  0  0  0  0  0  0
   -7.9020   -9.5910   11.7256 C   0  0  0  0  0  0  0  0  0  0  0  0
  1  2  1  0
  2  3  1  0
  3  4  2  0
  3  5  1  0
  5  6  2  0
  5 10  1  0
  6  7  1  0
  7  8  2  0
  8  9  1  0
  8 12  1  0
  9 10  2  0
  9 11  1  0
 12 13  1  0
M  END
>  <Gold.Gold.Protein.RotatedWaterAtoms>  (675) 


>  <Gold.Id.Protein>  (675) 


>  <Gold.PLP.Chemscore.CHOScore>  (675) 
0.0000

>  <Gold.PLP.Chemscore.Hbond>  (675) 
1.0000

>  <Gold.PLP.Chemscore.Internal.Correction>  (675) 
0.0000

>  <Gold.PLP.Chemscore.Metal>  (675) 
0.0000

>  <Gold.PLP.Fitness>  (675) 
43.9775

>  <Gold.PLP.PLP>  (675) 
-41.0517

>  <Gold.PLP.ligand.clash>  (675) 
0.0000

>  <Gold.PLP.ligand.torsion>  (675) 
0.0371

>  <Gold.PLP.part.buried>  (675) 
-3.7367

>  <Gold.PLP.part.hbond>  (675) 
-1.0000

>  <Gold.PLP.part.metal>  (675) 
0.0000

>  <Gold.PLP.part.nonpolar>  (675) 
-36.7483

>  <Gold.PLP.part.repulsive>  (675) 
0.4054

>  <Gold.Protein.RotatedAtoms>  (675) 


>  <Gold.Protein.RotatedTorsions>  (675) 


>  <Gold.Protein.RotatedWaterAtoms>  (675) 


>  <Gold.Version>  (675) 
5.3.0

>  <PLP.Chemscore.CHOScore>  (675) 


>  <PLP.Chemscore.Hbond>  (675) 


>  <PLP.Chemscore.Internal.Correction>  (675) 


>  <PLP.Chemscore.Metal>  (675) 


>  <PLP.Fitness>  (675) 


>  <PLP.PLP>  (675) 


>  <PLP.ligand.clash>  (675) 


>  <PLP.ligand.torsion>  (675) 


>  <PLP.part.buried>  (675) 


>  <PLP.part.hbond>  (675) 


>  <PLP.part.metal>  (675) 


>  <PLP.part.nonpolar>  (675) 


>  <PLP.part.repulsive>  (675) 


>  <RMSD>  (675) 
0.319376411377

>  <Torsion>  (675) 
169.460450784

>  <TorsionO>  (675) 
9.7963905484

>  <TorsionR>  (675) 
179.256841332

>  <Version>  (675) 


>  <product>  (675) 
75|Compound_31|Compounds_3D_F|sdf|13|dock1|1

>  <rmsd>  (675) 
-1

$$$$
128|137677_56|Aromatic_carboxylic_acids_F|sdf|33|dock1|1
     RDKit          3D

 11 11  0  0  0  0  0  0  0  0999 V2000
   -8.6116  -16.1544   11.8887 C   0  0  0  0  0  0  0  0  0  0  0  0
   -7.9978  -14.8484   11.9215 N   0  0  0  0  0  0  0  0  0  0  0  0
   -8.7778  -13.7008   11.8756 C   0  0  0  0  0  0  0  0  0  0  0  0
  -10.0002  -13.7896   11.8139 O   0  0  0  0  0  0  0  0  0  0  0  0
   -8.0808  -12.3609   11.9017 C   0  0  0  0  0  0  0  0  0  0  0  0
   -8.7916  -11.1851   11.5813 C   0  0  0  0  0  0  0  0  0  0  0  0
   -8.1781   -9.9267   11.5989 C   0  0  0  0  0  0  0  0  0  0  0  0
   -6.8391   -9.8089   11.9369 C   0  0  0  0  0  0  0  0  0  0  0  0
   -6.1124  -10.9502   12.2575 C   0  0  0  0  0  0  0  0  0  0  0  0
   -6.7171  -12.2196   12.2428 C   0  0  0  0  0  0  0  0  0  0  0  0
   -5.5419  -13.6455   12.7121 Br  0  0  0  0  0  0  0  0  0  0  0  0
  1  2  1  0
  2  3  1  0
  3  4  2  0
  3  5  1  0
  5  6  2  0
  5 10  1  0
  6  7  1  0
  7  8  2  0
  8  9  1  0
  9 10  2  0
 10 11  1  0
M  END
>  <Gold.Gold.Protein.RotatedWaterAtoms>  (676) 


>  <Gold.Id.Protein>  (676) 


>  <Gold.PLP.Chemscore.CHOScore>  (676) 
0.0000

>  <Gold.PLP.Chemscore.Hbond>  (676) 
1.0000

>  <Gold.PLP.Chemscore.Internal.Correction>  (676) 
0.0000

>  <Gold.PLP.Chemscore.Metal>  (676) 
0.0000

>  <Gold.PLP.Fitness>  (676) 
45.2899

>  <Gold.PLP.PLP>  (676) 
-42.4444

>  <Gold.PLP.ligand.clash>  (676) 
0.0000

>  <Gold.PLP.ligand.torsion>  (676) 
0.0772

>  <Gold.PLP.part.buried>  (676) 
-6.4690

>  <Gold.PLP.part.hbond>  (676) 
-0.6863

>  <Gold.PLP.part.metal>  (676) 
0.0000

>  <Gold.PLP.part.nonpolar>  (676) 
-34.8280

>  <Gold.PLP.part.repulsive>  (676) 
0.1963

>  <Gold.Protein.RotatedAtoms>  (676) 


>  <Gold.Protein.RotatedTorsions>  (676) 


>  <Gold.Protein.RotatedWaterAtoms>  (676) 


>  <Gold.Version>  (676) 
5.3.0

>  <PLP.Chemscore.CHOScore>  (676) 


>  <PLP.Chemscore.Hbond>  (676) 


>  <PLP.Chemscore.Internal.Correction>  (676) 


>  <PLP.Chemscore.Metal>  (676) 


>  <PLP.Fitness>  (676) 


>  <PLP.PLP>  (676) 


>  <PLP.ligand.clash>  (676) 


>  <PLP.ligand.torsion>  (676) 


>  <PLP.part.buried>  (676) 


>  <PLP.part.hbond>  (676) 


>  <PLP.part.metal>  (676) 


>  <PLP.part.nonpolar>  (676) 


>  <PLP.part.repulsive>  (676) 


>  <RMSD>  (676) 
0.428070490903

>  <Torsion>  (676) 
152.444048788

>  <TorsionO>  (676) 
39.0580871276

>  <TorsionR>  (676) 
168.497864085

>  <Version>  (676) 


>  <product>  (676) 
75|Compound_31|Compounds_3D_F|sdf|13|dock1|1

>  <rmsd>  (676) 
-1

$$$$
974|750794_1404|Aromatic_primary_amines_F|sdf|194|dock3|1
     RDKit          3D

 14 14  0  0  0  0  0  0  0  0999 V2000
  -13.6355  -18.1936    9.4145 C   0  0  0  0  0  0  0  0  0  0  0  0
  -13.2544  -19.4497   10.1732 C   0  0  0  0  0  0  0  0  0  0  0  0
  -11.8731  -19.3506   10.5383 O   0  0  0  0  0  0  0  0  0  0  0  0
  -11.6148  -18.5085   11.5823 C   0  0  0  0  0  0  0  0  0  0  0  0
  -12.3947  -18.2810   12.5004 O   0  0  0  0  0  0  0  0  0  0  0  0
  -10.3031  -17.8985   11.4902 C   0  0  0  0  0  0  0  0  0  0  0  0
   -9.1673  -18.4974   10.9931 C   0  0  0  0  0  0  0  0  0  0  0  0
   -8.1448  -17.6055   11.0758 O   0  0  0  0  0  0  0  0  0  0  0  0
   -8.7110  -16.4917   11.6237 C   0  0  0  0  0  0  0  0  0  0  0  0
   -9.9933  -16.6110   11.8915 N   0  0  0  0  0  0  0  0  0  0  0  0
   -7.9611  -15.3718   11.8549 N   0  0  0  0  0  0  0  0  0  0  0  0
   -8.5046  -14.1249   12.0676 C   0  0  0  0  0  0  0  0  0  0  0  0
   -9.6950  -13.8313   12.1035 O   0  0  0  0  0  0  0  0  0  0  0  0
   -7.4448  -13.0785   12.3021 C   0  0  0  0  0  0  0  0  0  0  0  0
  1  2  1  0
  2  3  1  0
  3  4  1  0
  4  5  2  0
  4  6  1  0
  6  7  2  0
  6 10  1  0
  7  8  1  0
  8  9  1  0
  9 10  2  0
  9 11  1  0
 11 12  1  0
 12 13  2  0
 12 14  1  0
M  END
>  <Gold.Gold.Protein.RotatedWaterAtoms>  (677) 


>  <Gold.Id.Protein>  (677) 


>  <Gold.PLP.Chemscore.CHOScore>  (677) 
0.0000

>  <Gold.PLP.Chemscore.Hbond>  (677) 
2.0000

>  <Gold.PLP.Chemscore.Internal.Correction>  (677) 
0.0053

>  <Gold.PLP.Chemscore.Metal>  (677) 
0.0000

>  <Gold.PLP.Fitness>  (677) 
36.8047

>  <Gold.PLP.PLP>  (677) 
-32.7996

>  <Gold.PLP.ligand.clash>  (677) 
0.0000

>  <Gold.PLP.ligand.torsion>  (677) 
1.0001

>  <Gold.PLP.part.buried>  (677) 
-6.5206

>  <Gold.PLP.part.hbond>  (677) 
-2.9156

>  <Gold.PLP.part.metal>  (677) 
0.0000

>  <Gold.PLP.part.nonpolar>  (677) 
-23.4080

>  <Gold.PLP.part.repulsive>  (677) 
0.3100

>  <Gold.Protein.RotatedAtoms>  (677) 


>  <Gold.Protein.RotatedTorsions>  (677) 


>  <Gold.Protein.RotatedWaterAtoms>  (677) 


>  <Gold.Version>  (677) 
5.3.0

>  <PLP.Chemscore.CHOScore>  (677) 


>  <PLP.Chemscore.Hbond>  (677) 


>  <PLP.Chemscore.Internal.Correction>  (677) 


>  <PLP.Chemscore.Metal>  (677) 


>  <PLP.Fitness>  (677) 


>  <PLP.PLP>  (677) 


>  <PLP.ligand.clash>  (677) 


>  <PLP.ligand.torsion>  (677) 


>  <PLP.part.buried>  (677) 


>  <PLP.part.hbond>  (677) 


>  <PLP.part.metal>  (677) 


>  <PLP.part.nonpolar>  (677) 


>  <PLP.part.repulsive>  (677) 


>  <RMSD>  (677) 
0.499949349045

>  <Torsion>  (677) 
159.973716791

>  <TorsionO>  (677) 
19.1052109979

>  <TorsionR>  (677) 
179.078927789

>  <Version>  (677) 


>  <product>  (677) 
75|Compound_31|Compounds_3D_F|sdf|13|dock1|1

>  <rmsd>  (677) 
-1

$$$$
1884|M3006_1781|Aromatic_primary_amines_F|sdf|361|dock3|1
     RDKit          3D

 31 34  0  0  0  0  0  0  0  0999 V2000
  -14.4210  -19.8971    8.7934 C   0  0  0  0  0  0  0  0  0  0  0  0
  -13.9762  -19.4927   10.1894 C   0  0  0  0  0  0  0  0  0  0  0  0
  -14.1356  -20.6409   11.1817 C   0  0  0  0  0  0  0  0  0  0  0  0
  -13.5197  -20.3070   12.5189 C   0  0  0  0  0  0  0  0  0  0  0  0
  -12.9307  -19.2724   12.7954 O   0  0  0  0  0  0  0  0  0  0  0  0
  -13.7110  -21.3451   13.3845 O   0  0  0  0  0  0  0  0  0  0  0  0
  -12.9425  -21.2698   14.5900 C   0  0  0  0  0  0  0  0  0  0  0  0
  -12.8849  -22.6189   15.2889 C   0  0  0  0  0  0  0  0  0  0  0  0
  -11.6552  -22.4172   16.1494 C   0  0  0  0  0  0  0  0  0  0  0  0
  -11.2420  -23.7410   16.7624 C   0  0  0  0  0  0  0  0  0  0  0  0
  -12.3024  -24.2223   17.5862 O   0  0  0  0  0  0  0  0  0  0  0  0
  -13.7888  -24.3384   16.9603 P   0  0  0  0  0  0  0  0  0  0  0  0
  -14.8775  -24.6795   17.9243 O   0  0  0  0  0  0  0  0  0  0  0  0
  -13.9839  -22.9641   16.1174 O   0  0  0  0  0  0  0  0  0  0  0  0
  -13.5991  -25.4435   15.8075 O   0  0  0  0  0  0  0  0  0  0  0  0
  -10.6922  -21.8161   15.2889 O   0  0  0  0  0  0  0  0  0  0  0  0
  -11.4338  -20.9664   14.3653 C   0  0  0  0  0  0  0  0  0  0  0  0
  -10.9052  -21.2017   13.0342 N   0  0  0  0  0  0  0  0  0  0  0  0
  -10.7814  -22.4114   12.4013 C   0  0  0  0  0  0  0  0  0  0  0  0
  -10.2640  -22.2918   11.1953 N   0  0  0  0  0  0  0  0  0  0  0  0
  -10.0274  -20.9476   11.0424 C   0  0  0  0  0  0  0  0  0  0  0  0
  -10.4203  -20.2487   12.1733 C   0  0  0  0  0  0  0  0  0  0  0  0
  -10.3338  -18.9216   12.3641 N   0  0  0  0  0  0  0  0  0  0  0  0
   -9.8057  -18.2730   11.3024 C   0  0  0  0  0  0  0  0  0  0  0  0
   -9.3808  -18.8370   10.1545 N   0  0  0  0  0  0  0  0  0  0  0  0
   -9.4895  -20.1691   10.0244 C   0  0  0  0  0  0  0  0  0  0  0  0
   -9.0330  -20.6622    8.8349 O   0  0  0  0  0  0  0  0  0  0  0  0
   -9.7222  -16.8901   11.4793 N   0  0  0  0  0  0  0  0  0  0  0  0
   -8.5796  -16.1798   11.7761 C   0  0  0  0  0  0  0  0  0  0  0  0
   -7.4445  -16.6221   11.9131 O   0  0  0  0  0  0  0  0  0  0  0  0
   -8.8524  -14.7024   11.8973 C   0  0  0  0  0  0  0  0  0  0  0  0
  1  2  1  0
  2  3  1  0
  3  4  1  0
  4  5  2  0
  4  6  1  0
  6  7  1  0
  7  8  1  0
  7 17  1  0
  8  9  1  0
  8 14  1  0
  9 10  1  0
  9 16  1  0
 10 11  1  0
 11 12  1  0
 12 13  2  0
 12 14  1  0
 12 15  1  0
 16 17  1  0
 17 18  1  0
 18 19  1  0
 18 22  1  0
 19 20  2  0
 20 21  1  0
 21 22  2  0
 21 26  1  0
 22 23  1  0
 23 24  2  0
 24 25  1  0
 24 28  1  0
 25 26  2  0
 26 27  1  0
 28 29  1  0
 29 30  2  0
 29 31  1  0
M  END
>  <Gold.Gold.Protein.RotatedWaterAtoms>  (678) 


>  <Gold.Id.Protein>  (678) 


>  <Gold.PLP.Chemscore.CHOScore>  (678) 
0.0000

>  <Gold.PLP.Chemscore.Hbond>  (678) 
1.2080

>  <Gold.PLP.Chemscore.Internal.Correction>  (678) 
0.1232

>  <Gold.PLP.Chemscore.Metal>  (678) 
0.0000

>  <Gold.PLP.Fitness>  (678) 
47.7145

>  <Gold.PLP.PLP>  (678) 
-46.0218

>  <Gold.PLP.ligand.clash>  (678) 
0.0000

>  <Gold.PLP.ligand.torsion>  (678) 
1.0272

>  <Gold.PLP.part.buried>  (678) 
-2.2958

>  <Gold.PLP.part.hbond>  (678) 
-4.0214

>  <Gold.PLP.part.metal>  (678) 
0.0000

>  <Gold.PLP.part.nonpolar>  (678) 
-41.4699

>  <Gold.PLP.part.repulsive>  (678) 
0.9524

>  <Gold.Protein.RotatedAtoms>  (678) 


>  <Gold.Protein.RotatedTorsions>  (678) 


>  <Gold.Protein.RotatedWaterAtoms>  (678) 


>  <Gold.Version>  (678) 
5.3.0

>  <PLP.Chemscore.CHOScore>  (678) 


>  <PLP.Chemscore.Hbond>  (678) 


>  <PLP.Chemscore.Internal.Correction>  (678) 


>  <PLP.Chemscore.Metal>  (678) 


>  <PLP.Fitness>  (678) 


>  <PLP.PLP>  (678) 


>  <PLP.ligand.clash>  (678) 


>  <PLP.ligand.torsion>  (678) 


>  <PLP.part.buried>  (678) 


>  <PLP.part.hbond>  (678) 


>  <PLP.part.metal>  (678) 


>  <PLP.part.nonpolar>  (678) 


>  <PLP.part.repulsive>  (678) 


>  <RMSD>  (678) 
0.291955871297

>  <Torsion>  (678) 
171.923704933

>  <TorsionO>  (678) 
6.03609353985

>  <TorsionR>  (678) 
177.959798473

>  <Version>  (678) 


>  <product>  (678) 
75|Compound_31|Compounds_3D_F|sdf|13|dock1|1

>  <rmsd>  (678) 
-1

$$$$
193|32168_281|Aromatic_primary_amines_F|sdf|39|dock6|1
     RDKit          3D

 23 25  0  0  0  0  0  0  0  0999 V2000
   -7.8439  -12.1461   11.8919 C   0  0  0  0  0  0  0  0  0  0  0  0
   -8.5691  -13.4472   11.6781 C   0  0  0  0  0  0  0  0  0  0  0  0
   -9.7886  -13.4981   11.5208 O   0  0  0  0  0  0  0  0  0  0  0  0
   -7.7264  -14.5390   11.7020 N   0  0  0  0  0  0  0  0  0  0  0  0
   -8.1889  -15.8197   11.5323 C   0  0  0  0  0  0  0  0  0  0  0  0
   -9.4747  -16.2039   11.8163 N   0  0  0  0  0  0  0  0  0  0  0  0
   -9.5964  -17.5375   11.5379 C   0  0  0  0  0  0  0  0  0  0  0  0
  -10.6643  -18.4283   11.6415 C   0  0  0  0  0  0  0  0  0  0  0  0
  -10.4051  -19.7586   11.2778 C   0  0  0  0  0  0  0  0  0  0  0  0
   -9.1530  -20.1507   10.7795 C   0  0  0  0  0  0  0  0  0  0  0  0
   -8.1017  -19.2294   10.6839 C   0  0  0  0  0  0  0  0  0  0  0  0
   -8.3349  -17.9032   11.0783 C   0  0  0  0  0  0  0  0  0  0  0  0
   -7.4773  -16.8281   11.0838 N   0  0  0  0  0  0  0  0  0  0  0  0
   -8.8530  -21.7658   10.2429 Cl  0  0  0  0  0  0  0  0  0  0  0  0
  -11.4669  -20.6323   11.3734 O   0  0  0  0  0  0  0  0  0  0  0  0
  -12.5262  -20.4408   10.5053 C   0  0  0  0  0  0  0  0  0  0  0  0
  -13.3188  -19.2846   10.5304 C   0  0  0  0  0  0  0  0  0  0  0  0
  -14.3665  -19.1344    9.6224 C   0  0  0  0  0  0  0  0  0  0  0  0
  -14.6219  -20.1279    8.6796 C   0  0  0  0  0  0  0  0  0  0  0  0
  -13.8238  -21.2756    8.6345 C   0  0  0  0  0  0  0  0  0  0  0  0
  -12.7674  -21.4342    9.5416 C   0  0  0  0  0  0  0  0  0  0  0  0
  -11.7588  -22.8458    9.4996 Cl  0  0  0  0  0  0  0  0  0  0  0  0
  -14.1988  -22.4584    7.4296 Cl  0  0  0  0  0  0  0  0  0  0  0  0
  1  2  1  0
  2  3  2  0
  2  4  1  0
  4  5  1  0
  5  6  1  0
  5 13  2  0
  6  7  1  0
  7  8  2  0
  7 12  1  0
  8  9  1  0
  9 10  2  0
  9 15  1  0
 10 11  1  0
 10 14  1  0
 11 12  2  0
 12 13  1  0
 15 16  1  0
 16 17  2  0
 16 21  1  0
 17 18  1  0
 18 19  2  0
 19 20  1  0
 20 21  2  0
 20 23  1  0
 21 22  1  0
M  END
>  <Gold.Gold.Protein.RotatedWaterAtoms>  (679) 


>  <Gold.Id.Protein>  (679) 


>  <Gold.PLP.Chemscore.CHOScore>  (679) 
0.0000

>  <Gold.PLP.Chemscore.Hbond>  (679) 
1.0000

>  <Gold.PLP.Chemscore.Internal.Correction>  (679) 
0.0086

>  <Gold.PLP.Chemscore.Metal>  (679) 
0.0000

>  <Gold.PLP.Fitness>  (679) 
50.7139

>  <Gold.PLP.PLP>  (679) 
-48.1706

>  <Gold.PLP.ligand.clash>  (679) 
0.0000

>  <Gold.PLP.ligand.torsion>  (679) 
0.2327

>  <Gold.PLP.part.buried>  (679) 
-6.5205

>  <Gold.PLP.part.hbond>  (679) 
-2.0000

>  <Gold.PLP.part.metal>  (679) 
0.0000

>  <Gold.PLP.part.nonpolar>  (679) 
-39.3857

>  <Gold.PLP.part.repulsive>  (679) 
0.3298

>  <Gold.Protein.RotatedAtoms>  (679) 


>  <Gold.Protein.RotatedTorsions>  (679) 


>  <Gold.Protein.RotatedWaterAtoms>  (679) 


>  <Gold.Version>  (679) 
5.3.0

>  <PLP.Chemscore.CHOScore>  (679) 


>  <PLP.Chemscore.Hbond>  (679) 


>  <PLP.Chemscore.Internal.Correction>  (679) 


>  <PLP.Chemscore.Metal>  (679) 


>  <PLP.Fitness>  (679) 


>  <PLP.PLP>  (679) 


>  <PLP.ligand.clash>  (679) 


>  <PLP.ligand.torsion>  (679) 


>  <PLP.part.buried>  (679) 


>  <PLP.part.hbond>  (679) 


>  <PLP.part.metal>  (679) 


>  <PLP.part.nonpolar>  (679) 


>  <PLP.part.repulsive>  (679) 


>  <RMSD>  (679) 
0.439733510035

>  <Torsion>  (679) 
177.672185574

>  <TorsionO>  (679) 
4.31728583372

>  <TorsionR>  (679) 
173.35489974

>  <Version>  (679) 


>  <product>  (679) 
75|Compound_31|Compounds_3D_F|sdf|13|dock1|1

>  <rmsd>  (679) 
-1

$$$$
30|Compound_19|Compounds_3D_F|sdf|6|dock3|1
     RDKit          3D

 12 11  0  0  0  0  0  0  0  0999 V2000
   -9.8446  -14.2821   12.6812 O   0  0  0  0  0  0  0  0  0  0  0  0
   -8.7803  -14.5578   11.9125 C   0  0  0  0  0  0  0  0  0  0  0  0
   -8.4548  -13.7946   11.0332 O   0  0  0  0  0  0  0  0  0  0  0  0
   -7.9897  -15.8199   12.1441 C   0  0  0  0  0  0  0  0  0  0  0  0
   -8.5626  -16.9090   11.3489 N   0  0  0  0  0  0  0  0  0  0  0  0
   -9.8046  -17.3582   11.6158 C   0  0  0  0  0  0  0  0  0  0  0  0
  -10.4485  -16.8600   12.5150 O   0  0  0  0  0  0  0  0  0  0  0  0
  -10.3935  -18.4781   10.7976 C   0  0  0  0  0  0  0  0  0  0  0  0
  -11.6733  -18.0472   10.2291 N   0  0  0  0  0  0  0  0  0  0  0  0
  -12.4236  -18.9157    9.5233 C   0  0  0  0  0  0  0  0  0  0  0  0
  -12.0402  -20.0541    9.3583 O   0  0  0  0  0  0  0  0  0  0  0  0
  -13.7949  -18.4537    8.9137 B   0  0  0  0  0  0  0  0  0  0  0  0
  1  2  1  0
  2  3  2  0
  2  4  1  0
  4  5  1  0
  5  6  1  0
  6  7  2  0
  6  8  1  0
  8  9  1  0
  9 10  1  0
 10 11  2  0
 10 12  1  0
M  END
>  <Gold.Gold.Protein.RotatedWaterAtoms>  (680) 


>  <Gold.Id.Protein>  (680) 


>  <Gold.PLP.Chemscore.CHOScore>  (680) 
0.0000

>  <Gold.PLP.Chemscore.Hbond>  (680) 
3.2743

>  <Gold.PLP.Chemscore.Internal.Correction>  (680) 
0.0064

>  <Gold.PLP.Chemscore.Metal>  (680) 
0.0000

>  <Gold.PLP.Fitness>  (680) 
34.0240

>  <Gold.PLP.PLP>  (680) 
-25.0299

>  <Gold.PLP.ligand.clash>  (680) 
0.0000

>  <Gold.PLP.ligand.torsion>  (680) 
0.4175

>  <Gold.PLP.part.buried>  (680) 
-3.5512

>  <Gold.PLP.part.hbond>  (680) 
-5.3552

>  <Gold.PLP.part.metal>  (680) 
0.0000

>  <Gold.PLP.part.nonpolar>  (680) 
-16.7508

>  <Gold.PLP.part.repulsive>  (680) 
0.3064

>  <Gold.Protein.RotatedAtoms>  (680) 


>  <Gold.Protein.RotatedTorsions>  (680) 


>  <Gold.Protein.RotatedWaterAtoms>  (680) 


>  <Gold.Version>  (680) 
5.3.0

>  <PLP.Chemscore.CHOScore>  (680) 


>  <PLP.Chemscore.Hbond>  (680) 


>  <PLP.Chemscore.Internal.Correction>  (680) 


>  <PLP.Chemscore.Metal>  (680) 


>  <PLP.Fitness>  (680) 


>  <PLP.PLP>  (680) 


>  <PLP.ligand.clash>  (680) 


>  <PLP.ligand.torsion>  (680) 


>  <PLP.part.buried>  (680) 


>  <PLP.part.hbond>  (680) 


>  <PLP.part.metal>  (680) 


>  <PLP.part.nonpolar>  (680) 


>  <PLP.part.repulsive>  (680) 


>  <Version>  (680) 


$$$$
94|664022_40|Aromatic_carboxylic_acids_F|sdf|24|dock1|1
     RDKit          3D

 12 12  0  0  0  0  0  0  0  0999 V2000
   -8.2596  -17.1212   11.4595 C   0  0  0  0  0  0  0  0  0  0  0  0
   -7.6366  -15.8367   11.6688 N   0  0  0  0  0  0  0  0  0  0  0  0
   -8.3409  -14.6553   11.5719 C   0  0  0  0  0  0  0  0  0  0  0  0
   -9.5296  -14.5547   11.2978 O   0  0  0  0  0  0  0  0  0  0  0  0
   -7.5420  -13.4431   11.8503 C   0  0  0  0  0  0  0  0  0  0  0  0
   -8.1627  -12.1983   11.6738 C   0  0  0  0  0  0  0  0  0  0  0  0
   -7.4390  -11.0301   11.9055 C   0  0  0  0  0  0  0  0  0  0  0  0
   -6.1069  -11.0910   12.3103 C   0  0  0  0  0  0  0  0  0  0  0  0
   -5.4897  -12.3324   12.4853 C   0  0  0  0  0  0  0  0  0  0  0  0
   -6.2035  -13.5136   12.2549 C   0  0  0  0  0  0  0  0  0  0  0  0
   -5.3062  -15.1564   12.5638 Br  0  0  0  0  0  0  0  0  0  0  0  0
   -8.1960   -9.5005   11.6887 Cl  0  0  0  0  0  0  0  0  0  0  0  0
  1  2  1  0
  2  3  1  0
  3  4  2  0
  3  5  1  0
  5  6  2  0
  5 10  1  0
  6  7  1  0
  7  8  2  0
  7 12  1  0
  8  9  1  0
  9 10  2  0
 10 11  1  0
M  END
>  <Gold.Gold.Protein.RotatedWaterAtoms>  (681) 


>  <Gold.Id.Protein>  (681) 


>  <Gold.PLP.Chemscore.CHOScore>  (681) 
0.0000

>  <Gold.PLP.Chemscore.Hbond>  (681) 
0.4160

>  <Gold.PLP.Chemscore.Internal.Correction>  (681) 
0.0004

>  <Gold.PLP.Chemscore.Metal>  (681) 
0.0000

>  <Gold.PLP.Fitness>  (681) 
48.9046

>  <Gold.PLP.PLP>  (681) 
-47.6744

>  <Gold.PLP.ligand.clash>  (681) 
0.0000

>  <Gold.PLP.ligand.torsion>  (681) 
0.0091

>  <Gold.PLP.part.buried>  (681) 
-7.3578

>  <Gold.PLP.part.hbond>  (681) 
-0.5127

>  <Gold.PLP.part.metal>  (681) 
0.0000

>  <Gold.PLP.part.nonpolar>  (681) 
-40.3098

>  <Gold.PLP.part.repulsive>  (681) 
0.1684

>  <Gold.Protein.RotatedAtoms>  (681) 


>  <Gold.Protein.RotatedTorsions>  (681) 


>  <Gold.Protein.RotatedWaterAtoms>  (681) 


>  <Gold.Version>  (681) 
5.3.0

>  <PLP.Chemscore.CHOScore>  (681) 


>  <PLP.Chemscore.Hbond>  (681) 


>  <PLP.Chemscore.Internal.Correction>  (681) 


>  <PLP.Chemscore.Metal>  (681) 


>  <PLP.Fitness>  (681) 


>  <PLP.PLP>  (681) 


>  <PLP.ligand.clash>  (681) 


>  <PLP.ligand.torsion>  (681) 


>  <PLP.part.buried>  (681) 


>  <PLP.part.hbond>  (681) 


>  <PLP.part.metal>  (681) 


>  <PLP.part.nonpolar>  (681) 


>  <PLP.part.repulsive>  (681) 


>  <RMSD>  (681) 
0.30972197429

>  <Torsion>  (681) 
172.929186758

>  <TorsionO>  (681) 
24.4968065243

>  <TorsionR>  (681) 
162.574006718

>  <Version>  (681) 


>  <product>  (681) 
30|Compound_19|Compounds_3D_F|sdf|6|dock3|1

>  <rmsd>  (681) 
-1

$$$$
110|565385_49|Aromatic_carboxylic_acids_F|sdf|29|dock1|1
     RDKit          3D

 13 13  0  0  0  0  0  0  0  0999 V2000
  -10.1118  -17.9021   11.6320 C   0  0  0  0  0  0  0  0  0  0  0  0
   -9.7537  -16.5043   11.6546 N   0  0  0  0  0  0  0  0  0  0  0  0
   -8.4330  -16.1187   11.7930 C   0  0  0  0  0  0  0  0  0  0  0  0
   -7.5159  -16.9298   11.9008 O   0  0  0  0  0  0  0  0  0  0  0  0
   -8.1234  -14.6552   11.8105 C   0  0  0  0  0  0  0  0  0  0  0  0
   -9.0636  -13.6551   11.5375 C   0  0  0  0  0  0  0  0  0  0  0  0
   -8.6966  -12.3009   11.5726 C   0  0  0  0  0  0  0  0  0  0  0  0
   -7.3879  -11.9195   11.8809 C   0  0  0  0  0  0  0  0  0  0  0  0
   -6.4486  -12.9235   12.1551 C   0  0  0  0  0  0  0  0  0  0  0  0
   -6.8098  -14.2750   12.1207 C   0  0  0  0  0  0  0  0  0  0  0  0
   -4.6444  -12.5025   12.5849 Br  0  0  0  0  0  0  0  0  0  0  0  0
   -6.9476  -10.6242   11.9372 O   0  0  0  0  0  0  0  0  0  0  0  0
   -7.9020   -9.5910   11.7256 C   0  0  0  0  0  0  0  0  0  0  0  0
  1  2  1  0
  2  3  1  0
  3  4  2  0
  3  5  1  0
  5  6  2  0
  5 10  1  0
  6  7  1  0
  7  8  2  0
  8  9  1  0
  8 12  1  0
  9 10  2  0
  9 11  1  0
 12 13  1  0
M  END
>  <Gold.Gold.Protein.RotatedWaterAtoms>  (682) 


>  <Gold.Id.Protein>  (682) 


>  <Gold.PLP.Chemscore.CHOScore>  (682) 
0.0000

>  <Gold.PLP.Chemscore.Hbond>  (682) 
1.0000

>  <Gold.PLP.Chemscore.Internal.Correction>  (682) 
0.0000

>  <Gold.PLP.Chemscore.Metal>  (682) 
0.0000

>  <Gold.PLP.Fitness>  (682) 
43.9775

>  <Gold.PLP.PLP>  (682) 
-41.0517

>  <Gold.PLP.ligand.clash>  (682) 
0.0000

>  <Gold.PLP.ligand.torsion>  (682) 
0.0371

>  <Gold.PLP.part.buried>  (682) 
-3.7367

>  <Gold.PLP.part.hbond>  (682) 
-1.0000

>  <Gold.PLP.part.metal>  (682) 
0.0000

>  <Gold.PLP.part.nonpolar>  (682) 
-36.7483

>  <Gold.PLP.part.repulsive>  (682) 
0.4054

>  <Gold.Protein.RotatedAtoms>  (682) 


>  <Gold.Protein.RotatedTorsions>  (682) 


>  <Gold.Protein.RotatedWaterAtoms>  (682) 


>  <Gold.Version>  (682) 
5.3.0

>  <PLP.Chemscore.CHOScore>  (682) 


>  <PLP.Chemscore.Hbond>  (682) 


>  <PLP.Chemscore.Internal.Correction>  (682) 


>  <PLP.Chemscore.Metal>  (682) 


>  <PLP.Fitness>  (682) 


>  <PLP.PLP>  (682) 


>  <PLP.ligand.clash>  (682) 


>  <PLP.ligand.torsion>  (682) 


>  <PLP.part.buried>  (682) 


>  <PLP.part.hbond>  (682) 


>  <PLP.part.metal>  (682) 


>  <PLP.part.nonpolar>  (682) 


>  <PLP.part.repulsive>  (682) 


>  <RMSD>  (682) 
0.319376411377

>  <Torsion>  (682) 
169.460450784

>  <TorsionO>  (682) 
9.7963905484

>  <TorsionR>  (682) 
179.256841332

>  <Version>  (682) 


>  <product>  (682) 
30|Compound_19|Compounds_3D_F|sdf|6|dock3|1

>  <rmsd>  (682) 
-1

$$$$
128|137677_56|Aromatic_carboxylic_acids_F|sdf|33|dock1|1
     RDKit          3D

 11 11  0  0  0  0  0  0  0  0999 V2000
   -8.6116  -16.1544   11.8887 C   0  0  0  0  0  0  0  0  0  0  0  0
   -7.9978  -14.8484   11.9215 N   0  0  0  0  0  0  0  0  0  0  0  0
   -8.7778  -13.7008   11.8756 C   0  0  0  0  0  0  0  0  0  0  0  0
  -10.0002  -13.7896   11.8139 O   0  0  0  0  0  0  0  0  0  0  0  0
   -8.0808  -12.3609   11.9017 C   0  0  0  0  0  0  0  0  0  0  0  0
   -8.7916  -11.1851   11.5813 C   0  0  0  0  0  0  0  0  0  0  0  0
   -8.1781   -9.9267   11.5989 C   0  0  0  0  0  0  0  0  0  0  0  0
   -6.8391   -9.8089   11.9369 C   0  0  0  0  0  0  0  0  0  0  0  0
   -6.1124  -10.9502   12.2575 C   0  0  0  0  0  0  0  0  0  0  0  0
   -6.7171  -12.2196   12.2428 C   0  0  0  0  0  0  0  0  0  0  0  0
   -5.5419  -13.6455   12.7121 Br  0  0  0  0  0  0  0  0  0  0  0  0
  1  2  1  0
  2  3  1  0
  3  4  2  0
  3  5  1  0
  5  6  2  0
  5 10  1  0
  6  7  1  0
  7  8  2  0
  8  9  1  0
  9 10  2  0
 10 11  1  0
M  END
>  <Gold.Gold.Protein.RotatedWaterAtoms>  (683) 


>  <Gold.Id.Protein>  (683) 


>  <Gold.PLP.Chemscore.CHOScore>  (683) 
0.0000

>  <Gold.PLP.Chemscore.Hbond>  (683) 
1.0000

>  <Gold.PLP.Chemscore.Internal.Correction>  (683) 
0.0000

>  <Gold.PLP.Chemscore.Metal>  (683) 
0.0000

>  <Gold.PLP.Fitness>  (683) 
45.2899

>  <Gold.PLP.PLP>  (683) 
-42.4444

>  <Gold.PLP.ligand.clash>  (683) 
0.0000

>  <Gold.PLP.ligand.torsion>  (683) 
0.0772

>  <Gold.PLP.part.buried>  (683) 
-6.4690

>  <Gold.PLP.part.hbond>  (683) 
-0.6863

>  <Gold.PLP.part.metal>  (683) 
0.0000

>  <Gold.PLP.part.nonpolar>  (683) 
-34.8280

>  <Gold.PLP.part.repulsive>  (683) 
0.1963

>  <Gold.Protein.RotatedAtoms>  (683) 


>  <Gold.Protein.RotatedTorsions>  (683) 


>  <Gold.Protein.RotatedWaterAtoms>  (683) 


>  <Gold.Version>  (683) 
5.3.0

>  <PLP.Chemscore.CHOScore>  (683) 


>  <PLP.Chemscore.Hbond>  (683) 


>  <PLP.Chemscore.Internal.Correction>  (683) 


>  <PLP.Chemscore.Metal>  (683) 


>  <PLP.Fitness>  (683) 


>  <PLP.PLP>  (683) 


>  <PLP.ligand.clash>  (683) 


>  <PLP.ligand.torsion>  (683) 


>  <PLP.part.buried>  (683) 


>  <PLP.part.hbond>  (683) 


>  <PLP.part.metal>  (683) 


>  <PLP.part.nonpolar>  (683) 


>  <PLP.part.repulsive>  (683) 


>  <RMSD>  (683) 
0.428070490903

>  <Torsion>  (683) 
152.444048788

>  <TorsionO>  (683) 
39.0580871276

>  <TorsionR>  (683) 
168.497864085

>  <Version>  (683) 


>  <product>  (683) 
30|Compound_19|Compounds_3D_F|sdf|6|dock3|1

>  <rmsd>  (683) 
-1

$$$$
974|750794_1404|Aromatic_primary_amines_F|sdf|194|dock3|1
     RDKit          3D

 14 14  0  0  0  0  0  0  0  0999 V2000
  -13.6355  -18.1936    9.4145 C   0  0  0  0  0  0  0  0  0  0  0  0
  -13.2544  -19.4497   10.1732 C   0  0  0  0  0  0  0  0  0  0  0  0
  -11.8731  -19.3506   10.5383 O   0  0  0  0  0  0  0  0  0  0  0  0
  -11.6148  -18.5085   11.5823 C   0  0  0  0  0  0  0  0  0  0  0  0
  -12.3947  -18.2810   12.5004 O   0  0  0  0  0  0  0  0  0  0  0  0
  -10.3031  -17.8985   11.4902 C   0  0  0  0  0  0  0  0  0  0  0  0
   -9.1673  -18.4974   10.9931 C   0  0  0  0  0  0  0  0  0  0  0  0
   -8.1448  -17.6055   11.0758 O   0  0  0  0  0  0  0  0  0  0  0  0
   -8.7110  -16.4917   11.6237 C   0  0  0  0  0  0  0  0  0  0  0  0
   -9.9933  -16.6110   11.8915 N   0  0  0  0  0  0  0  0  0  0  0  0
   -7.9611  -15.3718   11.8549 N   0  0  0  0  0  0  0  0  0  0  0  0
   -8.5046  -14.1249   12.0676 C   0  0  0  0  0  0  0  0  0  0  0  0
   -9.6950  -13.8313   12.1035 O   0  0  0  0  0  0  0  0  0  0  0  0
   -7.4448  -13.0785   12.3021 C   0  0  0  0  0  0  0  0  0  0  0  0
  1  2  1  0
  2  3  1  0
  3  4  1  0
  4  5  2  0
  4  6  1  0
  6  7  2  0
  6 10  1  0
  7  8  1  0
  8  9  1  0
  9 10  2  0
  9 11  1  0
 11 12  1  0
 12 13  2  0
 12 14  1  0
M  END
>  <Gold.Gold.Protein.RotatedWaterAtoms>  (684) 


>  <Gold.Id.Protein>  (684) 


>  <Gold.PLP.Chemscore.CHOScore>  (684) 
0.0000

>  <Gold.PLP.Chemscore.Hbond>  (684) 
2.0000

>  <Gold.PLP.Chemscore.Internal.Correction>  (684) 
0.0053

>  <Gold.PLP.Chemscore.Metal>  (684) 
0.0000

>  <Gold.PLP.Fitness>  (684) 
36.8047

>  <Gold.PLP.PLP>  (684) 
-32.7996

>  <Gold.PLP.ligand.clash>  (684) 
0.0000

>  <Gold.PLP.ligand.torsion>  (684) 
1.0001

>  <Gold.PLP.part.buried>  (684) 
-6.5206

>  <Gold.PLP.part.hbond>  (684) 
-2.9156

>  <Gold.PLP.part.metal>  (684) 
0.0000

>  <Gold.PLP.part.nonpolar>  (684) 
-23.4080

>  <Gold.PLP.part.repulsive>  (684) 
0.3100

>  <Gold.Protein.RotatedAtoms>  (684) 


>  <Gold.Protein.RotatedTorsions>  (684) 


>  <Gold.Protein.RotatedWaterAtoms>  (684) 


>  <Gold.Version>  (684) 
5.3.0

>  <PLP.Chemscore.CHOScore>  (684) 


>  <PLP.Chemscore.Hbond>  (684) 


>  <PLP.Chemscore.Internal.Correction>  (684) 


>  <PLP.Chemscore.Metal>  (684) 


>  <PLP.Fitness>  (684) 


>  <PLP.PLP>  (684) 


>  <PLP.ligand.clash>  (684) 


>  <PLP.ligand.torsion>  (684) 


>  <PLP.part.buried>  (684) 


>  <PLP.part.hbond>  (684) 


>  <PLP.part.metal>  (684) 


>  <PLP.part.nonpolar>  (684) 


>  <PLP.part.repulsive>  (684) 


>  <RMSD>  (684) 
0.499949349045

>  <Torsion>  (684) 
159.973716791

>  <TorsionO>  (684) 
19.1052109979

>  <TorsionR>  (684) 
179.078927789

>  <Version>  (684) 


>  <product>  (684) 
30|Compound_19|Compounds_3D_F|sdf|6|dock3|1

>  <rmsd>  (684) 
-1

$$$$
1884|M3006_1781|Aromatic_primary_amines_F|sdf|361|dock3|1
     RDKit          3D

 31 34  0  0  0  0  0  0  0  0999 V2000
  -14.4210  -19.8971    8.7934 C   0  0  0  0  0  0  0  0  0  0  0  0
  -13.9762  -19.4927   10.1894 C   0  0  0  0  0  0  0  0  0  0  0  0
  -14.1356  -20.6409   11.1817 C   0  0  0  0  0  0  0  0  0  0  0  0
  -13.5197  -20.3070   12.5189 C   0  0  0  0  0  0  0  0  0  0  0  0
  -12.9307  -19.2724   12.7954 O   0  0  0  0  0  0  0  0  0  0  0  0
  -13.7110  -21.3451   13.3845 O   0  0  0  0  0  0  0  0  0  0  0  0
  -12.9425  -21.2698   14.5900 C   0  0  0  0  0  0  0  0  0  0  0  0
  -12.8849  -22.6189   15.2889 C   0  0  0  0  0  0  0  0  0  0  0  0
  -11.6552  -22.4172   16.1494 C   0  0  0  0  0  0  0  0  0  0  0  0
  -11.2420  -23.7410   16.7624 C   0  0  0  0  0  0  0  0  0  0  0  0
  -12.3024  -24.2223   17.5862 O   0  0  0  0  0  0  0  0  0  0  0  0
  -13.7888  -24.3384   16.9603 P   0  0  0  0  0  0  0  0  0  0  0  0
  -14.8775  -24.6795   17.9243 O   0  0  0  0  0  0  0  0  0  0  0  0
  -13.9839  -22.9641   16.1174 O   0  0  0  0  0  0  0  0  0  0  0  0
  -13.5991  -25.4435   15.8075 O   0  0  0  0  0  0  0  0  0  0  0  0
  -10.6922  -21.8161   15.2889 O   0  0  0  0  0  0  0  0  0  0  0  0
  -11.4338  -20.9664   14.3653 C   0  0  0  0  0  0  0  0  0  0  0  0
  -10.9052  -21.2017   13.0342 N   0  0  0  0  0  0  0  0  0  0  0  0
  -10.7814  -22.4114   12.4013 C   0  0  0  0  0  0  0  0  0  0  0  0
  -10.2640  -22.2918   11.1953 N   0  0  0  0  0  0  0  0  0  0  0  0
  -10.0274  -20.9476   11.0424 C   0  0  0  0  0  0  0  0  0  0  0  0
  -10.4203  -20.2487   12.1733 C   0  0  0  0  0  0  0  0  0  0  0  0
  -10.3338  -18.9216   12.3641 N   0  0  0  0  0  0  0  0  0  0  0  0
   -9.8057  -18.2730   11.3024 C   0  0  0  0  0  0  0  0  0  0  0  0
   -9.3808  -18.8370   10.1545 N   0  0  0  0  0  0  0  0  0  0  0  0
   -9.4895  -20.1691   10.0244 C   0  0  0  0  0  0  0  0  0  0  0  0
   -9.0330  -20.6622    8.8349 O   0  0  0  0  0  0  0  0  0  0  0  0
   -9.7222  -16.8901   11.4793 N   0  0  0  0  0  0  0  0  0  0  0  0
   -8.5796  -16.1798   11.7761 C   0  0  0  0  0  0  0  0  0  0  0  0
   -7.4445  -16.6221   11.9131 O   0  0  0  0  0  0  0  0  0  0  0  0
   -8.8524  -14.7024   11.8973 C   0  0  0  0  0  0  0  0  0  0  0  0
  1  2  1  0
  2  3  1  0
  3  4  1  0
  4  5  2  0
  4  6  1  0
  6  7  1  0
  7  8  1  0
  7 17  1  0
  8  9  1  0
  8 14  1  0
  9 10  1  0
  9 16  1  0
 10 11  1  0
 11 12  1  0
 12 13  2  0
 12 14  1  0
 12 15  1  0
 16 17  1  0
 17 18  1  0
 18 19  1  0
 18 22  1  0
 19 20  2  0
 20 21  1  0
 21 22  2  0
 21 26  1  0
 22 23  1  0
 23 24  2  0
 24 25  1  0
 24 28  1  0
 25 26  2  0
 26 27  1  0
 28 29  1  0
 29 30  2  0
 29 31  1  0
M  END
>  <Gold.Gold.Protein.RotatedWaterAtoms>  (685) 


>  <Gold.Id.Protein>  (685) 


>  <Gold.PLP.Chemscore.CHOScore>  (685) 
0.0000

>  <Gold.PLP.Chemscore.Hbond>  (685) 
1.2080

>  <Gold.PLP.Chemscore.Internal.Correction>  (685) 
0.1232

>  <Gold.PLP.Chemscore.Metal>  (685) 
0.0000

>  <Gold.PLP.Fitness>  (685) 
47.7145

>  <Gold.PLP.PLP>  (685) 
-46.0218

>  <Gold.PLP.ligand.clash>  (685) 
0.0000

>  <Gold.PLP.ligand.torsion>  (685) 
1.0272

>  <Gold.PLP.part.buried>  (685) 
-2.2958

>  <Gold.PLP.part.hbond>  (685) 
-4.0214

>  <Gold.PLP.part.metal>  (685) 
0.0000

>  <Gold.PLP.part.nonpolar>  (685) 
-41.4699

>  <Gold.PLP.part.repulsive>  (685) 
0.9524

>  <Gold.Protein.RotatedAtoms>  (685) 


>  <Gold.Protein.RotatedTorsions>  (685) 


>  <Gold.Protein.RotatedWaterAtoms>  (685) 


>  <Gold.Version>  (685) 
5.3.0

>  <PLP.Chemscore.CHOScore>  (685) 


>  <PLP.Chemscore.Hbond>  (685) 


>  <PLP.Chemscore.Internal.Correction>  (685) 


>  <PLP.Chemscore.Metal>  (685) 


>  <PLP.Fitness>  (685) 


>  <PLP.PLP>  (685) 


>  <PLP.ligand.clash>  (685) 


>  <PLP.ligand.torsion>  (685) 


>  <PLP.part.buried>  (685) 


>  <PLP.part.hbond>  (685) 


>  <PLP.part.metal>  (685) 


>  <PLP.part.nonpolar>  (685) 


>  <PLP.part.repulsive>  (685) 


>  <RMSD>  (685) 
0.291955871297

>  <Torsion>  (685) 
171.923704933

>  <TorsionO>  (685) 
6.03609353985

>  <TorsionR>  (685) 
177.959798473

>  <Version>  (685) 


>  <product>  (685) 
30|Compound_19|Compounds_3D_F|sdf|6|dock3|1

>  <rmsd>  (685) 
-1

$$$$
193|32168_281|Aromatic_primary_amines_F|sdf|39|dock6|1
     RDKit          3D

 23 25  0  0  0  0  0  0  0  0999 V2000
   -7.8439  -12.1461   11.8919 C   0  0  0  0  0  0  0  0  0  0  0  0
   -8.5691  -13.4472   11.6781 C   0  0  0  0  0  0  0  0  0  0  0  0
   -9.7886  -13.4981   11.5208 O   0  0  0  0  0  0  0  0  0  0  0  0
   -7.7264  -14.5390   11.7020 N   0  0  0  0  0  0  0  0  0  0  0  0
   -8.1889  -15.8197   11.5323 C   0  0  0  0  0  0  0  0  0  0  0  0
   -9.4747  -16.2039   11.8163 N   0  0  0  0  0  0  0  0  0  0  0  0
   -9.5964  -17.5375   11.5379 C   0  0  0  0  0  0  0  0  0  0  0  0
  -10.6643  -18.4283   11.6415 C   0  0  0  0  0  0  0  0  0  0  0  0
  -10.4051  -19.7586   11.2778 C   0  0  0  0  0  0  0  0  0  0  0  0
   -9.1530  -20.1507   10.7795 C   0  0  0  0  0  0  0  0  0  0  0  0
   -8.1017  -19.2294   10.6839 C   0  0  0  0  0  0  0  0  0  0  0  0
   -8.3349  -17.9032   11.0783 C   0  0  0  0  0  0  0  0  0  0  0  0
   -7.4773  -16.8281   11.0838 N   0  0  0  0  0  0  0  0  0  0  0  0
   -8.8530  -21.7658   10.2429 Cl  0  0  0  0  0  0  0  0  0  0  0  0
  -11.4669  -20.6323   11.3734 O   0  0  0  0  0  0  0  0  0  0  0  0
  -12.5262  -20.4408   10.5053 C   0  0  0  0  0  0  0  0  0  0  0  0
  -13.3188  -19.2846   10.5304 C   0  0  0  0  0  0  0  0  0  0  0  0
  -14.3665  -19.1344    9.6224 C   0  0  0  0  0  0  0  0  0  0  0  0
  -14.6219  -20.1279    8.6796 C   0  0  0  0  0  0  0  0  0  0  0  0
  -13.8238  -21.2756    8.6345 C   0  0  0  0  0  0  0  0  0  0  0  0
  -12.7674  -21.4342    9.5416 C   0  0  0  0  0  0  0  0  0  0  0  0
  -11.7588  -22.8458    9.4996 Cl  0  0  0  0  0  0  0  0  0  0  0  0
  -14.1988  -22.4584    7.4296 Cl  0  0  0  0  0  0  0  0  0  0  0  0
  1  2  1  0
  2  3  2  0
  2  4  1  0
  4  5  1  0
  5  6  1  0
  5 13  2  0
  6  7  1  0
  7  8  2  0
  7 12  1  0
  8  9  1  0
  9 10  2  0
  9 15  1  0
 10 11  1  0
 10 14  1  0
 11 12  2  0
 12 13  1  0
 15 16  1  0
 16 17  2  0
 16 21  1  0
 17 18  1  0
 18 19  2  0
 19 20  1  0
 20 21  2  0
 20 23  1  0
 21 22  1  0
M  END
>  <Gold.Gold.Protein.RotatedWaterAtoms>  (686) 


>  <Gold.Id.Protein>  (686) 


>  <Gold.PLP.Chemscore.CHOScore>  (686) 
0.0000

>  <Gold.PLP.Chemscore.Hbond>  (686) 
1.0000

>  <Gold.PLP.Chemscore.Internal.Correction>  (686) 
0.0086

>  <Gold.PLP.Chemscore.Metal>  (686) 
0.0000

>  <Gold.PLP.Fitness>  (686) 
50.7139

>  <Gold.PLP.PLP>  (686) 
-48.1706

>  <Gold.PLP.ligand.clash>  (686) 
0.0000

>  <Gold.PLP.ligand.torsion>  (686) 
0.2327

>  <Gold.PLP.part.buried>  (686) 
-6.5205

>  <Gold.PLP.part.hbond>  (686) 
-2.0000

>  <Gold.PLP.part.metal>  (686) 
0.0000

>  <Gold.PLP.part.nonpolar>  (686) 
-39.3857

>  <Gold.PLP.part.repulsive>  (686) 
0.3298

>  <Gold.Protein.RotatedAtoms>  (686) 


>  <Gold.Protein.RotatedTorsions>  (686) 


>  <Gold.Protein.RotatedWaterAtoms>  (686) 


>  <Gold.Version>  (686) 
5.3.0

>  <PLP.Chemscore.CHOScore>  (686) 


>  <PLP.Chemscore.Hbond>  (686) 


>  <PLP.Chemscore.Internal.Correction>  (686) 


>  <PLP.Chemscore.Metal>  (686) 


>  <PLP.Fitness>  (686) 


>  <PLP.PLP>  (686) 


>  <PLP.ligand.clash>  (686) 


>  <PLP.ligand.torsion>  (686) 


>  <PLP.part.buried>  (686) 


>  <PLP.part.hbond>  (686) 


>  <PLP.part.metal>  (686) 


>  <PLP.part.nonpolar>  (686) 


>  <PLP.part.repulsive>  (686) 


>  <RMSD>  (686) 
0.439733510035

>  <Torsion>  (686) 
177.672185574

>  <TorsionO>  (686) 
4.31728583372

>  <TorsionR>  (686) 
173.35489974

>  <Version>  (686) 


>  <product>  (686) 
30|Compound_19|Compounds_3D_F|sdf|6|dock3|1

>  <rmsd>  (686) 
-1

$$$$
40|Compound_21|Compounds_3D_F|sdf|8|dock3|1
     RDKit          3D

 10  9  0  0  0  0  0  0  0  0999 V2000
  -10.0314  -15.5801    8.8455 O   0  0  0  0  0  0  0  0  0  0  0  0
   -8.7188  -16.1154    9.0233 C   0  0  0  0  0  0  0  0  0  0  0  0
   -8.1198  -15.5772   10.3238 C   0  0  0  0  0  0  0  0  0  0  0  0
   -8.4043  -14.1449   10.4367 N   0  0  0  0  0  0  0  0  0  0  0  0
   -7.9278  -13.4435   11.4842 C   0  0  0  0  0  0  0  0  0  0  0  0
   -7.2636  -13.9986   12.3335 O   0  0  0  0  0  0  0  0  0  0  0  0
   -8.2328  -11.9079   11.6053 B   0  0  0  0  0  0  0  0  0  0  0  0
   -8.7369  -16.3150   11.5134 C   0  0  0  0  0  0  0  0  0  0  0  0
   -6.6055  -15.7978   10.3170 C   0  0  0  0  0  0  0  0  0  0  0  0
   -5.9967  -14.9005    9.3862 O   0  0  0  0  0  0  0  0  0  0  0  0
  1  2  1  0
  2  3  1  0
  3  4  1  0
  3  8  1  0
  3  9  1  0
  4  5  1  0
  5  6  2  0
  5  7  1  0
  9 10  1  0
M  END
>  <Gold.Gold.Protein.RotatedWaterAtoms>  (687) 


>  <Gold.Id.Protein>  (687) 


>  <Gold.PLP.Chemscore.CHOScore>  (687) 
0.0000

>  <Gold.PLP.Chemscore.Hbond>  (687) 
3.6400

>  <Gold.PLP.Chemscore.Internal.Correction>  (687) 
0.0014

>  <Gold.PLP.Chemscore.Metal>  (687) 
0.0000

>  <Gold.PLP.Fitness>  (687) 
33.5553

>  <Gold.PLP.PLP>  (687) 
-23.2603

>  <Gold.PLP.ligand.clash>  (687) 
0.0000

>  <Gold.PLP.ligand.torsion>  (687) 
0.3132

>  <Gold.PLP.part.buried>  (687) 
-4.2060

>  <Gold.PLP.part.hbond>  (687) 
-5.0000

>  <Gold.PLP.part.metal>  (687) 
0.0000

>  <Gold.PLP.part.nonpolar>  (687) 
-14.0839

>  <Gold.PLP.part.repulsive>  (687) 
0.2355

>  <Gold.Protein.RotatedAtoms>  (687) 


>  <Gold.Protein.RotatedTorsions>  (687) 


>  <Gold.Protein.RotatedWaterAtoms>  (687) 


>  <Gold.Version>  (687) 
5.3.0

>  <PLP.Chemscore.CHOScore>  (687) 


>  <PLP.Chemscore.Hbond>  (687) 


>  <PLP.Chemscore.Internal.Correction>  (687) 


>  <PLP.Chemscore.Metal>  (687) 


>  <PLP.Fitness>  (687) 


>  <PLP.PLP>  (687) 


>  <PLP.ligand.clash>  (687) 


>  <PLP.ligand.torsion>  (687) 


>  <PLP.part.buried>  (687) 


>  <PLP.part.hbond>  (687) 


>  <PLP.part.metal>  (687) 


>  <PLP.part.nonpolar>  (687) 


>  <PLP.part.repulsive>  (687) 


>  <Version>  (687) 


$$$$
94|664022_40|Aromatic_carboxylic_acids_F|sdf|24|dock1|1
     RDKit          3D

 12 12  0  0  0  0  0  0  0  0999 V2000
   -8.2596  -17.1212   11.4595 C   0  0  0  0  0  0  0  0  0  0  0  0
   -7.6366  -15.8367   11.6688 N   0  0  0  0  0  0  0  0  0  0  0  0
   -8.3409  -14.6553   11.5719 C   0  0  0  0  0  0  0  0  0  0  0  0
   -9.5296  -14.5547   11.2978 O   0  0  0  0  0  0  0  0  0  0  0  0
   -7.5420  -13.4431   11.8503 C   0  0  0  0  0  0  0  0  0  0  0  0
   -8.1627  -12.1983   11.6738 C   0  0  0  0  0  0  0  0  0  0  0  0
   -7.4390  -11.0301   11.9055 C   0  0  0  0  0  0  0  0  0  0  0  0
   -6.1069  -11.0910   12.3103 C   0  0  0  0  0  0  0  0  0  0  0  0
   -5.4897  -12.3324   12.4853 C   0  0  0  0  0  0  0  0  0  0  0  0
   -6.2035  -13.5136   12.2549 C   0  0  0  0  0  0  0  0  0  0  0  0
   -5.3062  -15.1564   12.5638 Br  0  0  0  0  0  0  0  0  0  0  0  0
   -8.1960   -9.5005   11.6887 Cl  0  0  0  0  0  0  0  0  0  0  0  0
  1  2  1  0
  2  3  1  0
  3  4  2  0
  3  5  1  0
  5  6  2  0
  5 10  1  0
  6  7  1  0
  7  8  2  0
  7 12  1  0
  8  9  1  0
  9 10  2  0
 10 11  1  0
M  END
>  <Gold.Gold.Protein.RotatedWaterAtoms>  (688) 


>  <Gold.Id.Protein>  (688) 


>  <Gold.PLP.Chemscore.CHOScore>  (688) 
0.0000

>  <Gold.PLP.Chemscore.Hbond>  (688) 
0.4160

>  <Gold.PLP.Chemscore.Internal.Correction>  (688) 
0.0004

>  <Gold.PLP.Chemscore.Metal>  (688) 
0.0000

>  <Gold.PLP.Fitness>  (688) 
48.9046

>  <Gold.PLP.PLP>  (688) 
-47.6744

>  <Gold.PLP.ligand.clash>  (688) 
0.0000

>  <Gold.PLP.ligand.torsion>  (688) 
0.0091

>  <Gold.PLP.part.buried>  (688) 
-7.3578

>  <Gold.PLP.part.hbond>  (688) 
-0.5127

>  <Gold.PLP.part.metal>  (688) 
0.0000

>  <Gold.PLP.part.nonpolar>  (688) 
-40.3098

>  <Gold.PLP.part.repulsive>  (688) 
0.1684

>  <Gold.Protein.RotatedAtoms>  (688) 


>  <Gold.Protein.RotatedTorsions>  (688) 


>  <Gold.Protein.RotatedWaterAtoms>  (688) 


>  <Gold.Version>  (688) 
5.3.0

>  <PLP.Chemscore.CHOScore>  (688) 


>  <PLP.Chemscore.Hbond>  (688) 


>  <PLP.Chemscore.Internal.Correction>  (688) 


>  <PLP.Chemscore.Metal>  (688) 


>  <PLP.Fitness>  (688) 


>  <PLP.PLP>  (688) 


>  <PLP.ligand.clash>  (688) 


>  <PLP.ligand.torsion>  (688) 


>  <PLP.part.buried>  (688) 


>  <PLP.part.hbond>  (688) 


>  <PLP.part.metal>  (688) 


>  <PLP.part.nonpolar>  (688) 


>  <PLP.part.repulsive>  (688) 


>  <RMSD>  (688) 
0.30972197429

>  <Torsion>  (688) 
172.929186758

>  <TorsionO>  (688) 
24.4968065243

>  <TorsionR>  (688) 
162.574006718

>  <Version>  (688) 


>  <product>  (688) 
40|Compound_21|Compounds_3D_F|sdf|8|dock3|1

>  <rmsd>  (688) 
-1

$$$$
110|565385_49|Aromatic_carboxylic_acids_F|sdf|29|dock1|1
     RDKit          3D

 13 13  0  0  0  0  0  0  0  0999 V2000
  -10.1118  -17.9021   11.6320 C   0  0  0  0  0  0  0  0  0  0  0  0
   -9.7537  -16.5043   11.6546 N   0  0  0  0  0  0  0  0  0  0  0  0
   -8.4330  -16.1187   11.7930 C   0  0  0  0  0  0  0  0  0  0  0  0
   -7.5159  -16.9298   11.9008 O   0  0  0  0  0  0  0  0  0  0  0  0
   -8.1234  -14.6552   11.8105 C   0  0  0  0  0  0  0  0  0  0  0  0
   -9.0636  -13.6551   11.5375 C   0  0  0  0  0  0  0  0  0  0  0  0
   -8.6966  -12.3009   11.5726 C   0  0  0  0  0  0  0  0  0  0  0  0
   -7.3879  -11.9195   11.8809 C   0  0  0  0  0  0  0  0  0  0  0  0
   -6.4486  -12.9235   12.1551 C   0  0  0  0  0  0  0  0  0  0  0  0
   -6.8098  -14.2750   12.1207 C   0  0  0  0  0  0  0  0  0  0  0  0
   -4.6444  -12.5025   12.5849 Br  0  0  0  0  0  0  0  0  0  0  0  0
   -6.9476  -10.6242   11.9372 O   0  0  0  0  0  0  0  0  0  0  0  0
   -7.9020   -9.5910   11.7256 C   0  0  0  0  0  0  0  0  0  0  0  0
  1  2  1  0
  2  3  1  0
  3  4  2  0
  3  5  1  0
  5  6  2  0
  5 10  1  0
  6  7  1  0
  7  8  2  0
  8  9  1  0
  8 12  1  0
  9 10  2  0
  9 11  1  0
 12 13  1  0
M  END
>  <Gold.Gold.Protein.RotatedWaterAtoms>  (689) 


>  <Gold.Id.Protein>  (689) 


>  <Gold.PLP.Chemscore.CHOScore>  (689) 
0.0000

>  <Gold.PLP.Chemscore.Hbond>  (689) 
1.0000

>  <Gold.PLP.Chemscore.Internal.Correction>  (689) 
0.0000

>  <Gold.PLP.Chemscore.Metal>  (689) 
0.0000

>  <Gold.PLP.Fitness>  (689) 
43.9775

>  <Gold.PLP.PLP>  (689) 
-41.0517

>  <Gold.PLP.ligand.clash>  (689) 
0.0000

>  <Gold.PLP.ligand.torsion>  (689) 
0.0371

>  <Gold.PLP.part.buried>  (689) 
-3.7367

>  <Gold.PLP.part.hbond>  (689) 
-1.0000

>  <Gold.PLP.part.metal>  (689) 
0.0000

>  <Gold.PLP.part.nonpolar>  (689) 
-36.7483

>  <Gold.PLP.part.repulsive>  (689) 
0.4054

>  <Gold.Protein.RotatedAtoms>  (689) 


>  <Gold.Protein.RotatedTorsions>  (689) 


>  <Gold.Protein.RotatedWaterAtoms>  (689) 


>  <Gold.Version>  (689) 
5.3.0

>  <PLP.Chemscore.CHOScore>  (689) 


>  <PLP.Chemscore.Hbond>  (689) 


>  <PLP.Chemscore.Internal.Correction>  (689) 


>  <PLP.Chemscore.Metal>  (689) 


>  <PLP.Fitness>  (689) 


>  <PLP.PLP>  (689) 


>  <PLP.ligand.clash>  (689) 


>  <PLP.ligand.torsion>  (689) 


>  <PLP.part.buried>  (689) 


>  <PLP.part.hbond>  (689) 


>  <PLP.part.metal>  (689) 


>  <PLP.part.nonpolar>  (689) 


>  <PLP.part.repulsive>  (689) 


>  <RMSD>  (689) 
0.319376411377

>  <Torsion>  (689) 
169.460450784

>  <TorsionO>  (689) 
9.7963905484

>  <TorsionR>  (689) 
179.256841332

>  <Version>  (689) 


>  <product>  (689) 
40|Compound_21|Compounds_3D_F|sdf|8|dock3|1

>  <rmsd>  (689) 
-1

$$$$
128|137677_56|Aromatic_carboxylic_acids_F|sdf|33|dock1|1
     RDKit          3D

 11 11  0  0  0  0  0  0  0  0999 V2000
   -8.6116  -16.1544   11.8887 C   0  0  0  0  0  0  0  0  0  0  0  0
   -7.9978  -14.8484   11.9215 N   0  0  0  0  0  0  0  0  0  0  0  0
   -8.7778  -13.7008   11.8756 C   0  0  0  0  0  0  0  0  0  0  0  0
  -10.0002  -13.7896   11.8139 O   0  0  0  0  0  0  0  0  0  0  0  0
   -8.0808  -12.3609   11.9017 C   0  0  0  0  0  0  0  0  0  0  0  0
   -8.7916  -11.1851   11.5813 C   0  0  0  0  0  0  0  0  0  0  0  0
   -8.1781   -9.9267   11.5989 C   0  0  0  0  0  0  0  0  0  0  0  0
   -6.8391   -9.8089   11.9369 C   0  0  0  0  0  0  0  0  0  0  0  0
   -6.1124  -10.9502   12.2575 C   0  0  0  0  0  0  0  0  0  0  0  0
   -6.7171  -12.2196   12.2428 C   0  0  0  0  0  0  0  0  0  0  0  0
   -5.5419  -13.6455   12.7121 Br  0  0  0  0  0  0  0  0  0  0  0  0
  1  2  1  0
  2  3  1  0
  3  4  2  0
  3  5  1  0
  5  6  2  0
  5 10  1  0
  6  7  1  0
  7  8  2  0
  8  9  1  0
  9 10  2  0
 10 11  1  0
M  END
>  <Gold.Gold.Protein.RotatedWaterAtoms>  (690) 


>  <Gold.Id.Protein>  (690) 


>  <Gold.PLP.Chemscore.CHOScore>  (690) 
0.0000

>  <Gold.PLP.Chemscore.Hbond>  (690) 
1.0000

>  <Gold.PLP.Chemscore.Internal.Correction>  (690) 
0.0000

>  <Gold.PLP.Chemscore.Metal>  (690) 
0.0000

>  <Gold.PLP.Fitness>  (690) 
45.2899

>  <Gold.PLP.PLP>  (690) 
-42.4444

>  <Gold.PLP.ligand.clash>  (690) 
0.0000

>  <Gold.PLP.ligand.torsion>  (690) 
0.0772

>  <Gold.PLP.part.buried>  (690) 
-6.4690

>  <Gold.PLP.part.hbond>  (690) 
-0.6863

>  <Gold.PLP.part.metal>  (690) 
0.0000

>  <Gold.PLP.part.nonpolar>  (690) 
-34.8280

>  <Gold.PLP.part.repulsive>  (690) 
0.1963

>  <Gold.Protein.RotatedAtoms>  (690) 


>  <Gold.Protein.RotatedTorsions>  (690) 


>  <Gold.Protein.RotatedWaterAtoms>  (690) 


>  <Gold.Version>  (690) 
5.3.0

>  <PLP.Chemscore.CHOScore>  (690) 


>  <PLP.Chemscore.Hbond>  (690) 


>  <PLP.Chemscore.Internal.Correction>  (690) 


>  <PLP.Chemscore.Metal>  (690) 


>  <PLP.Fitness>  (690) 


>  <PLP.PLP>  (690) 


>  <PLP.ligand.clash>  (690) 


>  <PLP.ligand.torsion>  (690) 


>  <PLP.part.buried>  (690) 


>  <PLP.part.hbond>  (690) 


>  <PLP.part.metal>  (690) 


>  <PLP.part.nonpolar>  (690) 


>  <PLP.part.repulsive>  (690) 


>  <RMSD>  (690) 
0.428070490903

>  <Torsion>  (690) 
152.444048788

>  <TorsionO>  (690) 
39.0580871276

>  <TorsionR>  (690) 
168.497864085

>  <Version>  (690) 


>  <product>  (690) 
40|Compound_21|Compounds_3D_F|sdf|8|dock3|1

>  <rmsd>  (690) 
-1

$$$$
974|750794_1404|Aromatic_primary_amines_F|sdf|194|dock3|1
     RDKit          3D

 14 14  0  0  0  0  0  0  0  0999 V2000
  -13.6355  -18.1936    9.4145 C   0  0  0  0  0  0  0  0  0  0  0  0
  -13.2544  -19.4497   10.1732 C   0  0  0  0  0  0  0  0  0  0  0  0
  -11.8731  -19.3506   10.5383 O   0  0  0  0  0  0  0  0  0  0  0  0
  -11.6148  -18.5085   11.5823 C   0  0  0  0  0  0  0  0  0  0  0  0
  -12.3947  -18.2810   12.5004 O   0  0  0  0  0  0  0  0  0  0  0  0
  -10.3031  -17.8985   11.4902 C   0  0  0  0  0  0  0  0  0  0  0  0
   -9.1673  -18.4974   10.9931 C   0  0  0  0  0  0  0  0  0  0  0  0
   -8.1448  -17.6055   11.0758 O   0  0  0  0  0  0  0  0  0  0  0  0
   -8.7110  -16.4917   11.6237 C   0  0  0  0  0  0  0  0  0  0  0  0
   -9.9933  -16.6110   11.8915 N   0  0  0  0  0  0  0  0  0  0  0  0
   -7.9611  -15.3718   11.8549 N   0  0  0  0  0  0  0  0  0  0  0  0
   -8.5046  -14.1249   12.0676 C   0  0  0  0  0  0  0  0  0  0  0  0
   -9.6950  -13.8313   12.1035 O   0  0  0  0  0  0  0  0  0  0  0  0
   -7.4448  -13.0785   12.3021 C   0  0  0  0  0  0  0  0  0  0  0  0
  1  2  1  0
  2  3  1  0
  3  4  1  0
  4  5  2  0
  4  6  1  0
  6  7  2  0
  6 10  1  0
  7  8  1  0
  8  9  1  0
  9 10  2  0
  9 11  1  0
 11 12  1  0
 12 13  2  0
 12 14  1  0
M  END
>  <Gold.Gold.Protein.RotatedWaterAtoms>  (691) 


>  <Gold.Id.Protein>  (691) 


>  <Gold.PLP.Chemscore.CHOScore>  (691) 
0.0000

>  <Gold.PLP.Chemscore.Hbond>  (691) 
2.0000

>  <Gold.PLP.Chemscore.Internal.Correction>  (691) 
0.0053

>  <Gold.PLP.Chemscore.Metal>  (691) 
0.0000

>  <Gold.PLP.Fitness>  (691) 
36.8047

>  <Gold.PLP.PLP>  (691) 
-32.7996

>  <Gold.PLP.ligand.clash>  (691) 
0.0000

>  <Gold.PLP.ligand.torsion>  (691) 
1.0001

>  <Gold.PLP.part.buried>  (691) 
-6.5206

>  <Gold.PLP.part.hbond>  (691) 
-2.9156

>  <Gold.PLP.part.metal>  (691) 
0.0000

>  <Gold.PLP.part.nonpolar>  (691) 
-23.4080

>  <Gold.PLP.part.repulsive>  (691) 
0.3100

>  <Gold.Protein.RotatedAtoms>  (691) 


>  <Gold.Protein.RotatedTorsions>  (691) 


>  <Gold.Protein.RotatedWaterAtoms>  (691) 


>  <Gold.Version>  (691) 
5.3.0

>  <PLP.Chemscore.CHOScore>  (691) 


>  <PLP.Chemscore.Hbond>  (691) 


>  <PLP.Chemscore.Internal.Correction>  (691) 


>  <PLP.Chemscore.Metal>  (691) 


>  <PLP.Fitness>  (691) 


>  <PLP.PLP>  (691) 


>  <PLP.ligand.clash>  (691) 


>  <PLP.ligand.torsion>  (691) 


>  <PLP.part.buried>  (691) 


>  <PLP.part.hbond>  (691) 


>  <PLP.part.metal>  (691) 


>  <PLP.part.nonpolar>  (691) 


>  <PLP.part.repulsive>  (691) 


>  <RMSD>  (691) 
0.499949349045

>  <Torsion>  (691) 
159.973716791

>  <TorsionO>  (691) 
19.1052109979

>  <TorsionR>  (691) 
179.078927789

>  <Version>  (691) 


>  <product>  (691) 
40|Compound_21|Compounds_3D_F|sdf|8|dock3|1

>  <rmsd>  (691) 
-1

$$$$
1884|M3006_1781|Aromatic_primary_amines_F|sdf|361|dock3|1
     RDKit          3D

 31 34  0  0  0  0  0  0  0  0999 V2000
  -14.4210  -19.8971    8.7934 C   0  0  0  0  0  0  0  0  0  0  0  0
  -13.9762  -19.4927   10.1894 C   0  0  0  0  0  0  0  0  0  0  0  0
  -14.1356  -20.6409   11.1817 C   0  0  0  0  0  0  0  0  0  0  0  0
  -13.5197  -20.3070   12.5189 C   0  0  0  0  0  0  0  0  0  0  0  0
  -12.9307  -19.2724   12.7954 O   0  0  0  0  0  0  0  0  0  0  0  0
  -13.7110  -21.3451   13.3845 O   0  0  0  0  0  0  0  0  0  0  0  0
  -12.9425  -21.2698   14.5900 C   0  0  0  0  0  0  0  0  0  0  0  0
  -12.8849  -22.6189   15.2889 C   0  0  0  0  0  0  0  0  0  0  0  0
  -11.6552  -22.4172   16.1494 C   0  0  0  0  0  0  0  0  0  0  0  0
  -11.2420  -23.7410   16.7624 C   0  0  0  0  0  0  0  0  0  0  0  0
  -12.3024  -24.2223   17.5862 O   0  0  0  0  0  0  0  0  0  0  0  0
  -13.7888  -24.3384   16.9603 P   0  0  0  0  0  0  0  0  0  0  0  0
  -14.8775  -24.6795   17.9243 O   0  0  0  0  0  0  0  0  0  0  0  0
  -13.9839  -22.9641   16.1174 O   0  0  0  0  0  0  0  0  0  0  0  0
  -13.5991  -25.4435   15.8075 O   0  0  0  0  0  0  0  0  0  0  0  0
  -10.6922  -21.8161   15.2889 O   0  0  0  0  0  0  0  0  0  0  0  0
  -11.4338  -20.9664   14.3653 C   0  0  0  0  0  0  0  0  0  0  0  0
  -10.9052  -21.2017   13.0342 N   0  0  0  0  0  0  0  0  0  0  0  0
  -10.7814  -22.4114   12.4013 C   0  0  0  0  0  0  0  0  0  0  0  0
  -10.2640  -22.2918   11.1953 N   0  0  0  0  0  0  0  0  0  0  0  0
  -10.0274  -20.9476   11.0424 C   0  0  0  0  0  0  0  0  0  0  0  0
  -10.4203  -20.2487   12.1733 C   0  0  0  0  0  0  0  0  0  0  0  0
  -10.3338  -18.9216   12.3641 N   0  0  0  0  0  0  0  0  0  0  0  0
   -9.8057  -18.2730   11.3024 C   0  0  0  0  0  0  0  0  0  0  0  0
   -9.3808  -18.8370   10.1545 N   0  0  0  0  0  0  0  0  0  0  0  0
   -9.4895  -20.1691   10.0244 C   0  0  0  0  0  0  0  0  0  0  0  0
   -9.0330  -20.6622    8.8349 O   0  0  0  0  0  0  0  0  0  0  0  0
   -9.7222  -16.8901   11.4793 N   0  0  0  0  0  0  0  0  0  0  0  0
   -8.5796  -16.1798   11.7761 C   0  0  0  0  0  0  0  0  0  0  0  0
   -7.4445  -16.6221   11.9131 O   0  0  0  0  0  0  0  0  0  0  0  0
   -8.8524  -14.7024   11.8973 C   0  0  0  0  0  0  0  0  0  0  0  0
  1  2  1  0
  2  3  1  0
  3  4  1  0
  4  5  2  0
  4  6  1  0
  6  7  1  0
  7  8  1  0
  7 17  1  0
  8  9  1  0
  8 14  1  0
  9 10  1  0
  9 16  1  0
 10 11  1  0
 11 12  1  0
 12 13  2  0
 12 14  1  0
 12 15  1  0
 16 17  1  0
 17 18  1  0
 18 19  1  0
 18 22  1  0
 19 20  2  0
 20 21  1  0
 21 22  2  0
 21 26  1  0
 22 23  1  0
 23 24  2  0
 24 25  1  0
 24 28  1  0
 25 26  2  0
 26 27  1  0
 28 29  1  0
 29 30  2  0
 29 31  1  0
M  END
>  <Gold.Gold.Protein.RotatedWaterAtoms>  (692) 


>  <Gold.Id.Protein>  (692) 


>  <Gold.PLP.Chemscore.CHOScore>  (692) 
0.0000

>  <Gold.PLP.Chemscore.Hbond>  (692) 
1.2080

>  <Gold.PLP.Chemscore.Internal.Correction>  (692) 
0.1232

>  <Gold.PLP.Chemscore.Metal>  (692) 
0.0000

>  <Gold.PLP.Fitness>  (692) 
47.7145

>  <Gold.PLP.PLP>  (692) 
-46.0218

>  <Gold.PLP.ligand.clash>  (692) 
0.0000

>  <Gold.PLP.ligand.torsion>  (692) 
1.0272

>  <Gold.PLP.part.buried>  (692) 
-2.2958

>  <Gold.PLP.part.hbond>  (692) 
-4.0214

>  <Gold.PLP.part.metal>  (692) 
0.0000

>  <Gold.PLP.part.nonpolar>  (692) 
-41.4699

>  <Gold.PLP.part.repulsive>  (692) 
0.9524

>  <Gold.Protein.RotatedAtoms>  (692) 


>  <Gold.Protein.RotatedTorsions>  (692) 


>  <Gold.Protein.RotatedWaterAtoms>  (692) 


>  <Gold.Version>  (692) 
5.3.0

>  <PLP.Chemscore.CHOScore>  (692) 


>  <PLP.Chemscore.Hbond>  (692) 


>  <PLP.Chemscore.Internal.Correction>  (692) 


>  <PLP.Chemscore.Metal>  (692) 


>  <PLP.Fitness>  (692) 


>  <PLP.PLP>  (692) 


>  <PLP.ligand.clash>  (692) 


>  <PLP.ligand.torsion>  (692) 


>  <PLP.part.buried>  (692) 


>  <PLP.part.hbond>  (692) 


>  <PLP.part.metal>  (692) 


>  <PLP.part.nonpolar>  (692) 


>  <PLP.part.repulsive>  (692) 


>  <RMSD>  (692) 
0.291955871297

>  <Torsion>  (692) 
171.923704933

>  <TorsionO>  (692) 
6.03609353985

>  <TorsionR>  (692) 
177.959798473

>  <Version>  (692) 


>  <product>  (692) 
40|Compound_21|Compounds_3D_F|sdf|8|dock3|1

>  <rmsd>  (692) 
-1

$$$$
193|32168_281|Aromatic_primary_amines_F|sdf|39|dock6|1
     RDKit          3D

 23 25  0  0  0  0  0  0  0  0999 V2000
   -7.8439  -12.1461   11.8919 C   0  0  0  0  0  0  0  0  0  0  0  0
   -8.5691  -13.4472   11.6781 C   0  0  0  0  0  0  0  0  0  0  0  0
   -9.7886  -13.4981   11.5208 O   0  0  0  0  0  0  0  0  0  0  0  0
   -7.7264  -14.5390   11.7020 N   0  0  0  0  0  0  0  0  0  0  0  0
   -8.1889  -15.8197   11.5323 C   0  0  0  0  0  0  0  0  0  0  0  0
   -9.4747  -16.2039   11.8163 N   0  0  0  0  0  0  0  0  0  0  0  0
   -9.5964  -17.5375   11.5379 C   0  0  0  0  0  0  0  0  0  0  0  0
  -10.6643  -18.4283   11.6415 C   0  0  0  0  0  0  0  0  0  0  0  0
  -10.4051  -19.7586   11.2778 C   0  0  0  0  0  0  0  0  0  0  0  0
   -9.1530  -20.1507   10.7795 C   0  0  0  0  0  0  0  0  0  0  0  0
   -8.1017  -19.2294   10.6839 C   0  0  0  0  0  0  0  0  0  0  0  0
   -8.3349  -17.9032   11.0783 C   0  0  0  0  0  0  0  0  0  0  0  0
   -7.4773  -16.8281   11.0838 N   0  0  0  0  0  0  0  0  0  0  0  0
   -8.8530  -21.7658   10.2429 Cl  0  0  0  0  0  0  0  0  0  0  0  0
  -11.4669  -20.6323   11.3734 O   0  0  0  0  0  0  0  0  0  0  0  0
  -12.5262  -20.4408   10.5053 C   0  0  0  0  0  0  0  0  0  0  0  0
  -13.3188  -19.2846   10.5304 C   0  0  0  0  0  0  0  0  0  0  0  0
  -14.3665  -19.1344    9.6224 C   0  0  0  0  0  0  0  0  0  0  0  0
  -14.6219  -20.1279    8.6796 C   0  0  0  0  0  0  0  0  0  0  0  0
  -13.8238  -21.2756    8.6345 C   0  0  0  0  0  0  0  0  0  0  0  0
  -12.7674  -21.4342    9.5416 C   0  0  0  0  0  0  0  0  0  0  0  0
  -11.7588  -22.8458    9.4996 Cl  0  0  0  0  0  0  0  0  0  0  0  0
  -14.1988  -22.4584    7.4296 Cl  0  0  0  0  0  0  0  0  0  0  0  0
  1  2  1  0
  2  3  2  0
  2  4  1  0
  4  5  1  0
  5  6  1  0
  5 13  2  0
  6  7  1  0
  7  8  2  0
  7 12  1  0
  8  9  1  0
  9 10  2  0
  9 15  1  0
 10 11  1  0
 10 14  1  0
 11 12  2  0
 12 13  1  0
 15 16  1  0
 16 17  2  0
 16 21  1  0
 17 18  1  0
 18 19  2  0
 19 20  1  0
 20 21  2  0
 20 23  1  0
 21 22  1  0
M  END
>  <Gold.Gold.Protein.RotatedWaterAtoms>  (693) 


>  <Gold.Id.Protein>  (693) 


>  <Gold.PLP.Chemscore.CHOScore>  (693) 
0.0000

>  <Gold.PLP.Chemscore.Hbond>  (693) 
1.0000

>  <Gold.PLP.Chemscore.Internal.Correction>  (693) 
0.0086

>  <Gold.PLP.Chemscore.Metal>  (693) 
0.0000

>  <Gold.PLP.Fitness>  (693) 
50.7139

>  <Gold.PLP.PLP>  (693) 
-48.1706

>  <Gold.PLP.ligand.clash>  (693) 
0.0000

>  <Gold.PLP.ligand.torsion>  (693) 
0.2327

>  <Gold.PLP.part.buried>  (693) 
-6.5205

>  <Gold.PLP.part.hbond>  (693) 
-2.0000

>  <Gold.PLP.part.metal>  (693) 
0.0000

>  <Gold.PLP.part.nonpolar>  (693) 
-39.3857

>  <Gold.PLP.part.repulsive>  (693) 
0.3298

>  <Gold.Protein.RotatedAtoms>  (693) 


>  <Gold.Protein.RotatedTorsions>  (693) 


>  <Gold.Protein.RotatedWaterAtoms>  (693) 


>  <Gold.Version>  (693) 
5.3.0

>  <PLP.Chemscore.CHOScore>  (693) 


>  <PLP.Chemscore.Hbond>  (693) 


>  <PLP.Chemscore.Internal.Correction>  (693) 


>  <PLP.Chemscore.Metal>  (693) 


>  <PLP.Fitness>  (693) 


>  <PLP.PLP>  (693) 


>  <PLP.ligand.clash>  (693) 


>  <PLP.ligand.torsion>  (693) 


>  <PLP.part.buried>  (693) 


>  <PLP.part.hbond>  (693) 


>  <PLP.part.metal>  (693) 


>  <PLP.part.nonpolar>  (693) 


>  <PLP.part.repulsive>  (693) 


>  <RMSD>  (693) 
0.439733510035

>  <Torsion>  (693) 
177.672185574

>  <TorsionO>  (693) 
4.31728583372

>  <TorsionR>  (693) 
173.35489974

>  <Version>  (693) 


>  <product>  (693) 
40|Compound_21|Compounds_3D_F|sdf|8|dock3|1

>  <rmsd>  (693) 
-1

$$$$
56|Compound_24|Compounds_3D_F|sdf|10|dock3|1
     RDKit          3D

 10  9  0  0  0  0  0  0  0  0999 V2000
   -9.0697  -14.8373   10.0870 O   0  0  0  0  0  0  0  0  0  0  0  0
   -8.1153  -14.9396   11.0243 C   0  0  0  0  0  0  0  0  0  0  0  0
   -7.9856  -15.9680   11.6462 O   0  0  0  0  0  0  0  0  0  0  0  0
   -7.2044  -13.7716   11.3031 C   0  0  0  0  0  0  0  0  0  0  0  0
   -8.0415  -12.5586   11.7151 C   0  0  0  0  0  0  0  0  0  0  0  0
   -6.2405  -14.1344   12.4345 C   0  0  0  0  0  0  0  0  0  0  0  0
   -5.0448  -14.7690   11.8730 N   0  0  0  0  0  0  0  0  0  0  0  0
   -4.7962  -16.0712   12.1169 C   0  0  0  0  0  0  0  0  0  0  0  0
   -5.5619  -16.7169   12.8001 O   0  0  0  0  0  0  0  0  0  0  0  0
   -3.5153  -16.7510   11.5154 B   0  0  0  0  0  0  0  0  0  0  0  0
  1  2  1  0
  2  3  2  0
  2  4  1  0
  4  5  1  0
  4  6  1  0
  6  7  1  0
  7  8  1  0
  8  9  2  0
  8 10  1  0
M  END
>  <Gold.Gold.Protein.RotatedWaterAtoms>  (694) 


>  <Gold.Id.Protein>  (694) 


>  <Gold.PLP.Chemscore.CHOScore>  (694) 
0.0000

>  <Gold.PLP.Chemscore.Hbond>  (694) 
1.9120

>  <Gold.PLP.Chemscore.Internal.Correction>  (694) 
0.0014

>  <Gold.PLP.Chemscore.Metal>  (694) 
0.0000

>  <Gold.PLP.Fitness>  (694) 
32.8012

>  <Gold.PLP.PLP>  (694) 
-27.8159

>  <Gold.PLP.ligand.clash>  (694) 
0.0000

>  <Gold.PLP.ligand.torsion>  (694) 
0.3760

>  <Gold.PLP.part.buried>  (694) 
-6.2157

>  <Gold.PLP.part.hbond>  (694) 
-3.1224

>  <Gold.PLP.part.metal>  (694) 
0.0000

>  <Gold.PLP.part.nonpolar>  (694) 
-18.5225

>  <Gold.PLP.part.repulsive>  (694) 
0.1876

>  <Gold.Protein.RotatedAtoms>  (694) 


>  <Gold.Protein.RotatedTorsions>  (694) 


>  <Gold.Protein.RotatedWaterAtoms>  (694) 


>  <Gold.Version>  (694) 
5.3.0

>  <PLP.Chemscore.CHOScore>  (694) 


>  <PLP.Chemscore.Hbond>  (694) 


>  <PLP.Chemscore.Internal.Correction>  (694) 


>  <PLP.Chemscore.Metal>  (694) 


>  <PLP.Fitness>  (694) 


>  <PLP.PLP>  (694) 


>  <PLP.ligand.clash>  (694) 


>  <PLP.ligand.torsion>  (694) 


>  <PLP.part.buried>  (694) 


>  <PLP.part.hbond>  (694) 


>  <PLP.part.metal>  (694) 


>  <PLP.part.nonpolar>  (694) 


>  <PLP.part.repulsive>  (694) 


>  <Version>  (694) 


$$$$
94|664022_40|Aromatic_carboxylic_acids_F|sdf|24|dock1|1
     RDKit          3D

 12 12  0  0  0  0  0  0  0  0999 V2000
   -8.2596  -17.1212   11.4595 C   0  0  0  0  0  0  0  0  0  0  0  0
   -7.6366  -15.8367   11.6688 N   0  0  0  0  0  0  0  0  0  0  0  0
   -8.3409  -14.6553   11.5719 C   0  0  0  0  0  0  0  0  0  0  0  0
   -9.5296  -14.5547   11.2978 O   0  0  0  0  0  0  0  0  0  0  0  0
   -7.5420  -13.4431   11.8503 C   0  0  0  0  0  0  0  0  0  0  0  0
   -8.1627  -12.1983   11.6738 C   0  0  0  0  0  0  0  0  0  0  0  0
   -7.4390  -11.0301   11.9055 C   0  0  0  0  0  0  0  0  0  0  0  0
   -6.1069  -11.0910   12.3103 C   0  0  0  0  0  0  0  0  0  0  0  0
   -5.4897  -12.3324   12.4853 C   0  0  0  0  0  0  0  0  0  0  0  0
   -6.2035  -13.5136   12.2549 C   0  0  0  0  0  0  0  0  0  0  0  0
   -5.3062  -15.1564   12.5638 Br  0  0  0  0  0  0  0  0  0  0  0  0
   -8.1960   -9.5005   11.6887 Cl  0  0  0  0  0  0  0  0  0  0  0  0
  1  2  1  0
  2  3  1  0
  3  4  2  0
  3  5  1  0
  5  6  2  0
  5 10  1  0
  6  7  1  0
  7  8  2  0
  7 12  1  0
  8  9  1  0
  9 10  2  0
 10 11  1  0
M  END
>  <Gold.Gold.Protein.RotatedWaterAtoms>  (695) 


>  <Gold.Id.Protein>  (695) 


>  <Gold.PLP.Chemscore.CHOScore>  (695) 
0.0000

>  <Gold.PLP.Chemscore.Hbond>  (695) 
0.4160

>  <Gold.PLP.Chemscore.Internal.Correction>  (695) 
0.0004

>  <Gold.PLP.Chemscore.Metal>  (695) 
0.0000

>  <Gold.PLP.Fitness>  (695) 
48.9046

>  <Gold.PLP.PLP>  (695) 
-47.6744

>  <Gold.PLP.ligand.clash>  (695) 
0.0000

>  <Gold.PLP.ligand.torsion>  (695) 
0.0091

>  <Gold.PLP.part.buried>  (695) 
-7.3578

>  <Gold.PLP.part.hbond>  (695) 
-0.5127

>  <Gold.PLP.part.metal>  (695) 
0.0000

>  <Gold.PLP.part.nonpolar>  (695) 
-40.3098

>  <Gold.PLP.part.repulsive>  (695) 
0.1684

>  <Gold.Protein.RotatedAtoms>  (695) 


>  <Gold.Protein.RotatedTorsions>  (695) 


>  <Gold.Protein.RotatedWaterAtoms>  (695) 


>  <Gold.Version>  (695) 
5.3.0

>  <PLP.Chemscore.CHOScore>  (695) 


>  <PLP.Chemscore.Hbond>  (695) 


>  <PLP.Chemscore.Internal.Correction>  (695) 


>  <PLP.Chemscore.Metal>  (695) 


>  <PLP.Fitness>  (695) 


>  <PLP.PLP>  (695) 


>  <PLP.ligand.clash>  (695) 


>  <PLP.ligand.torsion>  (695) 


>  <PLP.part.buried>  (695) 


>  <PLP.part.hbond>  (695) 


>  <PLP.part.metal>  (695) 


>  <PLP.part.nonpolar>  (695) 


>  <PLP.part.repulsive>  (695) 


>  <RMSD>  (695) 
0.30972197429

>  <Torsion>  (695) 
172.929186758

>  <TorsionO>  (695) 
24.4968065243

>  <TorsionR>  (695) 
162.574006718

>  <Version>  (695) 


>  <product>  (695) 
56|Compound_24|Compounds_3D_F|sdf|10|dock3|1

>  <rmsd>  (695) 
-1

$$$$
110|565385_49|Aromatic_carboxylic_acids_F|sdf|29|dock1|1
     RDKit          3D

 13 13  0  0  0  0  0  0  0  0999 V2000
  -10.1118  -17.9021   11.6320 C   0  0  0  0  0  0  0  0  0  0  0  0
   -9.7537  -16.5043   11.6546 N   0  0  0  0  0  0  0  0  0  0  0  0
   -8.4330  -16.1187   11.7930 C   0  0  0  0  0  0  0  0  0  0  0  0
   -7.5159  -16.9298   11.9008 O   0  0  0  0  0  0  0  0  0  0  0  0
   -8.1234  -14.6552   11.8105 C   0  0  0  0  0  0  0  0  0  0  0  0
   -9.0636  -13.6551   11.5375 C   0  0  0  0  0  0  0  0  0  0  0  0
   -8.6966  -12.3009   11.5726 C   0  0  0  0  0  0  0  0  0  0  0  0
   -7.3879  -11.9195   11.8809 C   0  0  0  0  0  0  0  0  0  0  0  0
   -6.4486  -12.9235   12.1551 C   0  0  0  0  0  0  0  0  0  0  0  0
   -6.8098  -14.2750   12.1207 C   0  0  0  0  0  0  0  0  0  0  0  0
   -4.6444  -12.5025   12.5849 Br  0  0  0  0  0  0  0  0  0  0  0  0
   -6.9476  -10.6242   11.9372 O   0  0  0  0  0  0  0  0  0  0  0  0
   -7.9020   -9.5910   11.7256 C   0  0  0  0  0  0  0  0  0  0  0  0
  1  2  1  0
  2  3  1  0
  3  4  2  0
  3  5  1  0
  5  6  2  0
  5 10  1  0
  6  7  1  0
  7  8  2  0
  8  9  1  0
  8 12  1  0
  9 10  2  0
  9 11  1  0
 12 13  1  0
M  END
>  <Gold.Gold.Protein.RotatedWaterAtoms>  (696) 


>  <Gold.Id.Protein>  (696) 


>  <Gold.PLP.Chemscore.CHOScore>  (696) 
0.0000

>  <Gold.PLP.Chemscore.Hbond>  (696) 
1.0000

>  <Gold.PLP.Chemscore.Internal.Correction>  (696) 
0.0000

>  <Gold.PLP.Chemscore.Metal>  (696) 
0.0000

>  <Gold.PLP.Fitness>  (696) 
43.9775

>  <Gold.PLP.PLP>  (696) 
-41.0517

>  <Gold.PLP.ligand.clash>  (696) 
0.0000

>  <Gold.PLP.ligand.torsion>  (696) 
0.0371

>  <Gold.PLP.part.buried>  (696) 
-3.7367

>  <Gold.PLP.part.hbond>  (696) 
-1.0000

>  <Gold.PLP.part.metal>  (696) 
0.0000

>  <Gold.PLP.part.nonpolar>  (696) 
-36.7483

>  <Gold.PLP.part.repulsive>  (696) 
0.4054

>  <Gold.Protein.RotatedAtoms>  (696) 


>  <Gold.Protein.RotatedTorsions>  (696) 


>  <Gold.Protein.RotatedWaterAtoms>  (696) 


>  <Gold.Version>  (696) 
5.3.0

>  <PLP.Chemscore.CHOScore>  (696) 


>  <PLP.Chemscore.Hbond>  (696) 


>  <PLP.Chemscore.Internal.Correction>  (696) 


>  <PLP.Chemscore.Metal>  (696) 


>  <PLP.Fitness>  (696) 


>  <PLP.PLP>  (696) 


>  <PLP.ligand.clash>  (696) 


>  <PLP.ligand.torsion>  (696) 


>  <PLP.part.buried>  (696) 


>  <PLP.part.hbond>  (696) 


>  <PLP.part.metal>  (696) 


>  <PLP.part.nonpolar>  (696) 


>  <PLP.part.repulsive>  (696) 


>  <RMSD>  (696) 
0.319376411377

>  <Torsion>  (696) 
169.460450784

>  <TorsionO>  (696) 
9.7963905484

>  <TorsionR>  (696) 
179.256841332

>  <Version>  (696) 


>  <product>  (696) 
56|Compound_24|Compounds_3D_F|sdf|10|dock3|1

>  <rmsd>  (696) 
-1

$$$$
128|137677_56|Aromatic_carboxylic_acids_F|sdf|33|dock1|1
     RDKit          3D

 11 11  0  0  0  0  0  0  0  0999 V2000
   -8.6116  -16.1544   11.8887 C   0  0  0  0  0  0  0  0  0  0  0  0
   -7.9978  -14.8484   11.9215 N   0  0  0  0  0  0  0  0  0  0  0  0
   -8.7778  -13.7008   11.8756 C   0  0  0  0  0  0  0  0  0  0  0  0
  -10.0002  -13.7896   11.8139 O   0  0  0  0  0  0  0  0  0  0  0  0
   -8.0808  -12.3609   11.9017 C   0  0  0  0  0  0  0  0  0  0  0  0
   -8.7916  -11.1851   11.5813 C   0  0  0  0  0  0  0  0  0  0  0  0
   -8.1781   -9.9267   11.5989 C   0  0  0  0  0  0  0  0  0  0  0  0
   -6.8391   -9.8089   11.9369 C   0  0  0  0  0  0  0  0  0  0  0  0
   -6.1124  -10.9502   12.2575 C   0  0  0  0  0  0  0  0  0  0  0  0
   -6.7171  -12.2196   12.2428 C   0  0  0  0  0  0  0  0  0  0  0  0
   -5.5419  -13.6455   12.7121 Br  0  0  0  0  0  0  0  0  0  0  0  0
  1  2  1  0
  2  3  1  0
  3  4  2  0
  3  5  1  0
  5  6  2  0
  5 10  1  0
  6  7  1  0
  7  8  2  0
  8  9  1  0
  9 10  2  0
 10 11  1  0
M  END
>  <Gold.Gold.Protein.RotatedWaterAtoms>  (697) 


>  <Gold.Id.Protein>  (697) 


>  <Gold.PLP.Chemscore.CHOScore>  (697) 
0.0000

>  <Gold.PLP.Chemscore.Hbond>  (697) 
1.0000

>  <Gold.PLP.Chemscore.Internal.Correction>  (697) 
0.0000

>  <Gold.PLP.Chemscore.Metal>  (697) 
0.0000

>  <Gold.PLP.Fitness>  (697) 
45.2899

>  <Gold.PLP.PLP>  (697) 
-42.4444

>  <Gold.PLP.ligand.clash>  (697) 
0.0000

>  <Gold.PLP.ligand.torsion>  (697) 
0.0772

>  <Gold.PLP.part.buried>  (697) 
-6.4690

>  <Gold.PLP.part.hbond>  (697) 
-0.6863

>  <Gold.PLP.part.metal>  (697) 
0.0000

>  <Gold.PLP.part.nonpolar>  (697) 
-34.8280

>  <Gold.PLP.part.repulsive>  (697) 
0.1963

>  <Gold.Protein.RotatedAtoms>  (697) 


>  <Gold.Protein.RotatedTorsions>  (697) 


>  <Gold.Protein.RotatedWaterAtoms>  (697) 


>  <Gold.Version>  (697) 
5.3.0

>  <PLP.Chemscore.CHOScore>  (697) 


>  <PLP.Chemscore.Hbond>  (697) 


>  <PLP.Chemscore.Internal.Correction>  (697) 


>  <PLP.Chemscore.Metal>  (697) 


>  <PLP.Fitness>  (697) 


>  <PLP.PLP>  (697) 


>  <PLP.ligand.clash>  (697) 


>  <PLP.ligand.torsion>  (697) 


>  <PLP.part.buried>  (697) 


>  <PLP.part.hbond>  (697) 


>  <PLP.part.metal>  (697) 


>  <PLP.part.nonpolar>  (697) 


>  <PLP.part.repulsive>  (697) 


>  <RMSD>  (697) 
0.428070490903

>  <Torsion>  (697) 
152.444048788

>  <TorsionO>  (697) 
39.0580871276

>  <TorsionR>  (697) 
168.497864085

>  <Version>  (697) 


>  <product>  (697) 
56|Compound_24|Compounds_3D_F|sdf|10|dock3|1

>  <rmsd>  (697) 
-1

$$$$
974|750794_1404|Aromatic_primary_amines_F|sdf|194|dock3|1
     RDKit          3D

 14 14  0  0  0  0  0  0  0  0999 V2000
  -13.6355  -18.1936    9.4145 C   0  0  0  0  0  0  0  0  0  0  0  0
  -13.2544  -19.4497   10.1732 C   0  0  0  0  0  0  0  0  0  0  0  0
  -11.8731  -19.3506   10.5383 O   0  0  0  0  0  0  0  0  0  0  0  0
  -11.6148  -18.5085   11.5823 C   0  0  0  0  0  0  0  0  0  0  0  0
  -12.3947  -18.2810   12.5004 O   0  0  0  0  0  0  0  0  0  0  0  0
  -10.3031  -17.8985   11.4902 C   0  0  0  0  0  0  0  0  0  0  0  0
   -9.1673  -18.4974   10.9931 C   0  0  0  0  0  0  0  0  0  0  0  0
   -8.1448  -17.6055   11.0758 O   0  0  0  0  0  0  0  0  0  0  0  0
   -8.7110  -16.4917   11.6237 C   0  0  0  0  0  0  0  0  0  0  0  0
   -9.9933  -16.6110   11.8915 N   0  0  0  0  0  0  0  0  0  0  0  0
   -7.9611  -15.3718   11.8549 N   0  0  0  0  0  0  0  0  0  0  0  0
   -8.5046  -14.1249   12.0676 C   0  0  0  0  0  0  0  0  0  0  0  0
   -9.6950  -13.8313   12.1035 O   0  0  0  0  0  0  0  0  0  0  0  0
   -7.4448  -13.0785   12.3021 C   0  0  0  0  0  0  0  0  0  0  0  0
  1  2  1  0
  2  3  1  0
  3  4  1  0
  4  5  2  0
  4  6  1  0
  6  7  2  0
  6 10  1  0
  7  8  1  0
  8  9  1  0
  9 10  2  0
  9 11  1  0
 11 12  1  0
 12 13  2  0
 12 14  1  0
M  END
>  <Gold.Gold.Protein.RotatedWaterAtoms>  (698) 


>  <Gold.Id.Protein>  (698) 


>  <Gold.PLP.Chemscore.CHOScore>  (698) 
0.0000

>  <Gold.PLP.Chemscore.Hbond>  (698) 
2.0000

>  <Gold.PLP.Chemscore.Internal.Correction>  (698) 
0.0053

>  <Gold.PLP.Chemscore.Metal>  (698) 
0.0000

>  <Gold.PLP.Fitness>  (698) 
36.8047

>  <Gold.PLP.PLP>  (698) 
-32.7996

>  <Gold.PLP.ligand.clash>  (698) 
0.0000

>  <Gold.PLP.ligand.torsion>  (698) 
1.0001

>  <Gold.PLP.part.buried>  (698) 
-6.5206

>  <Gold.PLP.part.hbond>  (698) 
-2.9156

>  <Gold.PLP.part.metal>  (698) 
0.0000

>  <Gold.PLP.part.nonpolar>  (698) 
-23.4080

>  <Gold.PLP.part.repulsive>  (698) 
0.3100

>  <Gold.Protein.RotatedAtoms>  (698) 


>  <Gold.Protein.RotatedTorsions>  (698) 


>  <Gold.Protein.RotatedWaterAtoms>  (698) 


>  <Gold.Version>  (698) 
5.3.0

>  <PLP.Chemscore.CHOScore>  (698) 


>  <PLP.Chemscore.Hbond>  (698) 


>  <PLP.Chemscore.Internal.Correction>  (698) 


>  <PLP.Chemscore.Metal>  (698) 


>  <PLP.Fitness>  (698) 


>  <PLP.PLP>  (698) 


>  <PLP.ligand.clash>  (698) 


>  <PLP.ligand.torsion>  (698) 


>  <PLP.part.buried>  (698) 


>  <PLP.part.hbond>  (698) 


>  <PLP.part.metal>  (698) 


>  <PLP.part.nonpolar>  (698) 


>  <PLP.part.repulsive>  (698) 


>  <RMSD>  (698) 
0.499949349045

>  <Torsion>  (698) 
159.973716791

>  <TorsionO>  (698) 
19.1052109979

>  <TorsionR>  (698) 
179.078927789

>  <Version>  (698) 


>  <product>  (698) 
56|Compound_24|Compounds_3D_F|sdf|10|dock3|1

>  <rmsd>  (698) 
-1

$$$$
1884|M3006_1781|Aromatic_primary_amines_F|sdf|361|dock3|1
     RDKit          3D

 31 34  0  0  0  0  0  0  0  0999 V2000
  -14.4210  -19.8971    8.7934 C   0  0  0  0  0  0  0  0  0  0  0  0
  -13.9762  -19.4927   10.1894 C   0  0  0  0  0  0  0  0  0  0  0  0
  -14.1356  -20.6409   11.1817 C   0  0  0  0  0  0  0  0  0  0  0  0
  -13.5197  -20.3070   12.5189 C   0  0  0  0  0  0  0  0  0  0  0  0
  -12.9307  -19.2724   12.7954 O   0  0  0  0  0  0  0  0  0  0  0  0
  -13.7110  -21.3451   13.3845 O   0  0  0  0  0  0  0  0  0  0  0  0
  -12.9425  -21.2698   14.5900 C   0  0  0  0  0  0  0  0  0  0  0  0
  -12.8849  -22.6189   15.2889 C   0  0  0  0  0  0  0  0  0  0  0  0
  -11.6552  -22.4172   16.1494 C   0  0  0  0  0  0  0  0  0  0  0  0
  -11.2420  -23.7410   16.7624 C   0  0  0  0  0  0  0  0  0  0  0  0
  -12.3024  -24.2223   17.5862 O   0  0  0  0  0  0  0  0  0  0  0  0
  -13.7888  -24.3384   16.9603 P   0  0  0  0  0  0  0  0  0  0  0  0
  -14.8775  -24.6795   17.9243 O   0  0  0  0  0  0  0  0  0  0  0  0
  -13.9839  -22.9641   16.1174 O   0  0  0  0  0  0  0  0  0  0  0  0
  -13.5991  -25.4435   15.8075 O   0  0  0  0  0  0  0  0  0  0  0  0
  -10.6922  -21.8161   15.2889 O   0  0  0  0  0  0  0  0  0  0  0  0
  -11.4338  -20.9664   14.3653 C   0  0  0  0  0  0  0  0  0  0  0  0
  -10.9052  -21.2017   13.0342 N   0  0  0  0  0  0  0  0  0  0  0  0
  -10.7814  -22.4114   12.4013 C   0  0  0  0  0  0  0  0  0  0  0  0
  -10.2640  -22.2918   11.1953 N   0  0  0  0  0  0  0  0  0  0  0  0
  -10.0274  -20.9476   11.0424 C   0  0  0  0  0  0  0  0  0  0  0  0
  -10.4203  -20.2487   12.1733 C   0  0  0  0  0  0  0  0  0  0  0  0
  -10.3338  -18.9216   12.3641 N   0  0  0  0  0  0  0  0  0  0  0  0
   -9.8057  -18.2730   11.3024 C   0  0  0  0  0  0  0  0  0  0  0  0
   -9.3808  -18.8370   10.1545 N   0  0  0  0  0  0  0  0  0  0  0  0
   -9.4895  -20.1691   10.0244 C   0  0  0  0  0  0  0  0  0  0  0  0
   -9.0330  -20.6622    8.8349 O   0  0  0  0  0  0  0  0  0  0  0  0
   -9.7222  -16.8901   11.4793 N   0  0  0  0  0  0  0  0  0  0  0  0
   -8.5796  -16.1798   11.7761 C   0  0  0  0  0  0  0  0  0  0  0  0
   -7.4445  -16.6221   11.9131 O   0  0  0  0  0  0  0  0  0  0  0  0
   -8.8524  -14.7024   11.8973 C   0  0  0  0  0  0  0  0  0  0  0  0
  1  2  1  0
  2  3  1  0
  3  4  1  0
  4  5  2  0
  4  6  1  0
  6  7  1  0
  7  8  1  0
  7 17  1  0
  8  9  1  0
  8 14  1  0
  9 10  1  0
  9 16  1  0
 10 11  1  0
 11 12  1  0
 12 13  2  0
 12 14  1  0
 12 15  1  0
 16 17  1  0
 17 18  1  0
 18 19  1  0
 18 22  1  0
 19 20  2  0
 20 21  1  0
 21 22  2  0
 21 26  1  0
 22 23  1  0
 23 24  2  0
 24 25  1  0
 24 28  1  0
 25 26  2  0
 26 27  1  0
 28 29  1  0
 29 30  2  0
 29 31  1  0
M  END
>  <Gold.Gold.Protein.RotatedWaterAtoms>  (699) 


>  <Gold.Id.Protein>  (699) 


>  <Gold.PLP.Chemscore.CHOScore>  (699) 
0.0000

>  <Gold.PLP.Chemscore.Hbond>  (699) 
1.2080

>  <Gold.PLP.Chemscore.Internal.Correction>  (699) 
0.1232

>  <Gold.PLP.Chemscore.Metal>  (699) 
0.0000

>  <Gold.PLP.Fitness>  (699) 
47.7145

>  <Gold.PLP.PLP>  (699) 
-46.0218

>  <Gold.PLP.ligand.clash>  (699) 
0.0000

>  <Gold.PLP.ligand.torsion>  (699) 
1.0272

>  <Gold.PLP.part.buried>  (699) 
-2.2958

>  <Gold.PLP.part.hbond>  (699) 
-4.0214

>  <Gold.PLP.part.metal>  (699) 
0.0000

>  <Gold.PLP.part.nonpolar>  (699) 
-41.4699

>  <Gold.PLP.part.repulsive>  (699) 
0.9524

>  <Gold.Protein.RotatedAtoms>  (699) 


>  <Gold.Protein.RotatedTorsions>  (699) 


>  <Gold.Protein.RotatedWaterAtoms>  (699) 


>  <Gold.Version>  (699) 
5.3.0

>  <PLP.Chemscore.CHOScore>  (699) 


>  <PLP.Chemscore.Hbond>  (699) 


>  <PLP.Chemscore.Internal.Correction>  (699) 


>  <PLP.Chemscore.Metal>  (699) 


>  <PLP.Fitness>  (699) 


>  <PLP.PLP>  (699) 


>  <PLP.ligand.clash>  (699) 


>  <PLP.ligand.torsion>  (699) 


>  <PLP.part.buried>  (699) 


>  <PLP.part.hbond>  (699) 


>  <PLP.part.metal>  (699) 


>  <PLP.part.nonpolar>  (699) 


>  <PLP.part.repulsive>  (699) 


>  <RMSD>  (699) 
0.291955871297

>  <Torsion>  (699) 
171.923704933

>  <TorsionO>  (699) 
6.03609353985

>  <TorsionR>  (699) 
177.959798473

>  <Version>  (699) 


>  <product>  (699) 
56|Compound_24|Compounds_3D_F|sdf|10|dock3|1

>  <rmsd>  (699) 
-1

$$$$
193|32168_281|Aromatic_primary_amines_F|sdf|39|dock6|1
     RDKit          3D

 23 25  0  0  0  0  0  0  0  0999 V2000
   -7.8439  -12.1461   11.8919 C   0  0  0  0  0  0  0  0  0  0  0  0
   -8.5691  -13.4472   11.6781 C   0  0  0  0  0  0  0  0  0  0  0  0
   -9.7886  -13.4981   11.5208 O   0  0  0  0  0  0  0  0  0  0  0  0
   -7.7264  -14.5390   11.7020 N   0  0  0  0  0  0  0  0  0  0  0  0
   -8.1889  -15.8197   11.5323 C   0  0  0  0  0  0  0  0  0  0  0  0
   -9.4747  -16.2039   11.8163 N   0  0  0  0  0  0  0  0  0  0  0  0
   -9.5964  -17.5375   11.5379 C   0  0  0  0  0  0  0  0  0  0  0  0
  -10.6643  -18.4283   11.6415 C   0  0  0  0  0  0  0  0  0  0  0  0
  -10.4051  -19.7586   11.2778 C   0  0  0  0  0  0  0  0  0  0  0  0
   -9.1530  -20.1507   10.7795 C   0  0  0  0  0  0  0  0  0  0  0  0
   -8.1017  -19.2294   10.6839 C   0  0  0  0  0  0  0  0  0  0  0  0
   -8.3349  -17.9032   11.0783 C   0  0  0  0  0  0  0  0  0  0  0  0
   -7.4773  -16.8281   11.0838 N   0  0  0  0  0  0  0  0  0  0  0  0
   -8.8530  -21.7658   10.2429 Cl  0  0  0  0  0  0  0  0  0  0  0  0
  -11.4669  -20.6323   11.3734 O   0  0  0  0  0  0  0  0  0  0  0  0
  -12.5262  -20.4408   10.5053 C   0  0  0  0  0  0  0  0  0  0  0  0
  -13.3188  -19.2846   10.5304 C   0  0  0  0  0  0  0  0  0  0  0  0
  -14.3665  -19.1344    9.6224 C   0  0  0  0  0  0  0  0  0  0  0  0
  -14.6219  -20.1279    8.6796 C   0  0  0  0  0  0  0  0  0  0  0  0
  -13.8238  -21.2756    8.6345 C   0  0  0  0  0  0  0  0  0  0  0  0
  -12.7674  -21.4342    9.5416 C   0  0  0  0  0  0  0  0  0  0  0  0
  -11.7588  -22.8458    9.4996 Cl  0  0  0  0  0  0  0  0  0  0  0  0
  -14.1988  -22.4584    7.4296 Cl  0  0  0  0  0  0  0  0  0  0  0  0
  1  2  1  0
  2  3  2  0
  2  4  1  0
  4  5  1  0
  5  6  1  0
  5 13  2  0
  6  7  1  0
  7  8  2  0
  7 12  1  0
  8  9  1  0
  9 10  2  0
  9 15  1  0
 10 11  1  0
 10 14  1  0
 11 12  2  0
 12 13  1  0
 15 16  1  0
 16 17  2  0
 16 21  1  0
 17 18  1  0
 18 19  2  0
 19 20  1  0
 20 21  2  0
 20 23  1  0
 21 22  1  0
M  END
>  <Gold.Gold.Protein.RotatedWaterAtoms>  (700) 


>  <Gold.Id.Protein>  (700) 


>  <Gold.PLP.Chemscore.CHOScore>  (700) 
0.0000

>  <Gold.PLP.Chemscore.Hbond>  (700) 
1.0000

>  <Gold.PLP.Chemscore.Internal.Correction>  (700) 
0.0086

>  <Gold.PLP.Chemscore.Metal>  (700) 
0.0000

>  <Gold.PLP.Fitness>  (700) 
50.7139

>  <Gold.PLP.PLP>  (700) 
-48.1706

>  <Gold.PLP.ligand.clash>  (700) 
0.0000

>  <Gold.PLP.ligand.torsion>  (700) 
0.2327

>  <Gold.PLP.part.buried>  (700) 
-6.5205

>  <Gold.PLP.part.hbond>  (700) 
-2.0000

>  <Gold.PLP.part.metal>  (700) 
0.0000

>  <Gold.PLP.part.nonpolar>  (700) 
-39.3857

>  <Gold.PLP.part.repulsive>  (700) 
0.3298

>  <Gold.Protein.RotatedAtoms>  (700) 


>  <Gold.Protein.RotatedTorsions>  (700) 


>  <Gold.Protein.RotatedWaterAtoms>  (700) 


>  <Gold.Version>  (700) 
5.3.0

>  <PLP.Chemscore.CHOScore>  (700) 


>  <PLP.Chemscore.Hbond>  (700) 


>  <PLP.Chemscore.Internal.Correction>  (700) 


>  <PLP.Chemscore.Metal>  (700) 


>  <PLP.Fitness>  (700) 


>  <PLP.PLP>  (700) 


>  <PLP.ligand.clash>  (700) 


>  <PLP.ligand.torsion>  (700) 


>  <PLP.part.buried>  (700) 


>  <PLP.part.hbond>  (700) 


>  <PLP.part.metal>  (700) 


>  <PLP.part.nonpolar>  (700) 


>  <PLP.part.repulsive>  (700) 


>  <RMSD>  (700) 
0.439733510035

>  <Torsion>  (700) 
177.672185574

>  <TorsionO>  (700) 
4.31728583372

>  <TorsionR>  (700) 
173.35489974

>  <Version>  (700) 


>  <product>  (700) 
56|Compound_24|Compounds_3D_F|sdf|10|dock3|1

>  <rmsd>  (700) 
-1

$$$$
