0|Compound_1|Compounds_3D_F|sdf|1|dock1|1
     RDKit          3D

  5  4  0  0  0  0  0  0  0  0999 V2000
   -5.5350  -12.0623   12.4971 B   0  0  0  0  0  0  0  0  0  0  0  0
   -5.7585  -13.6125   12.3946 C   0  0  0  0  0  0  0  0  0  0  0  0
   -6.8764  -14.0722   12.4911 O   0  0  0  0  0  0  0  0  0  0  0  0
   -4.7070  -14.4333   12.1995 N   0  0  0  0  0  0  0  0  0  0  0  0
   -4.9158  -15.8805   12.1042 C   0  0  0  0  0  0  0  0  0  0  0  0
  1  2  1  0
  2  3  2  0
  2  4  1  0
  4  5  1  0
M  END
>  <Gold.Gold.Protein.RotatedWaterAtoms>  (1) 


>  <Gold.Id.Protein>  (1) 


>  <Gold.PLP.Chemscore.CHOScore>  (1) 
0.0000

>  <Gold.PLP.Chemscore.Hbond>  (1) 
1.0000

>  <Gold.PLP.Chemscore.Internal.Correction>  (1) 
0.0000

>  <Gold.PLP.Chemscore.Metal>  (1) 
0.0000

>  <Gold.PLP.Fitness>  (1) 
20.8504

>  <Gold.PLP.PLP>  (1) 
-17.8504

>  <Gold.PLP.ligand.clash>  (1) 
0.0000

>  <Gold.PLP.ligand.torsion>  (1) 
0.0000

>  <Gold.PLP.part.buried>  (1) 
-3.9280

>  <Gold.PLP.part.hbond>  (1) 
-2.0000

>  <Gold.PLP.part.metal>  (1) 
0.0000

>  <Gold.PLP.part.nonpolar>  (1) 
-11.8544

>  <Gold.PLP.part.repulsive>  (1) 
0.2651

>  <Gold.Protein.RotatedAtoms>  (1) 


>  <Gold.Protein.RotatedTorsions>  (1) 


>  <Gold.Protein.RotatedWaterAtoms>  (1) 


>  <Gold.Version>  (1) 
5.3.0

>  <PLP.Chemscore.CHOScore>  (1) 


>  <PLP.Chemscore.Hbond>  (1) 


>  <PLP.Chemscore.Internal.Correction>  (1) 


>  <PLP.Chemscore.Metal>  (1) 


>  <PLP.Fitness>  (1) 


>  <PLP.PLP>  (1) 


>  <PLP.ligand.clash>  (1) 


>  <PLP.ligand.torsion>  (1) 


>  <PLP.part.buried>  (1) 


>  <PLP.part.hbond>  (1) 


>  <PLP.part.metal>  (1) 


>  <PLP.part.nonpolar>  (1) 


>  <PLP.part.repulsive>  (1) 


>  <Version>  (1) 


$$$$
1|Compound_1|Compounds_3D_F|sdf|1|dock2|1
     RDKit          3D

  5  4  0  0  0  0  0  0  0  0999 V2000
   -5.4975  -12.3545   12.5001 B   0  0  0  0  0  0  0  0  0  0  0  0
   -5.6747  -13.9108   12.3986 C   0  0  0  0  0  0  0  0  0  0  0  0
   -6.7778  -14.4039   12.4999 O   0  0  0  0  0  0  0  0  0  0  0  0
   -4.5998  -14.6996   12.1990 N   0  0  0  0  0  0  0  0  0  0  0  0
   -4.7654  -16.1525   12.1046 C   0  0  0  0  0  0  0  0  0  0  0  0
  1  2  1  0
  2  3  2  0
  2  4  1  0
  4  5  1  0
M  END
>  <Gold.Gold.Protein.RotatedWaterAtoms>  (2) 


>  <Gold.Id.Protein>  (2) 


>  <Gold.PLP.Chemscore.CHOScore>  (2) 
0.0000

>  <Gold.PLP.Chemscore.Hbond>  (2) 
1.0000

>  <Gold.PLP.Chemscore.Internal.Correction>  (2) 
0.0000

>  <Gold.PLP.Chemscore.Metal>  (2) 
0.0000

>  <Gold.PLP.Fitness>  (2) 
20.8062

>  <Gold.PLP.PLP>  (2) 
-17.8062

>  <Gold.PLP.ligand.clash>  (2) 
0.0000

>  <Gold.PLP.ligand.torsion>  (2) 
0.0000

>  <Gold.PLP.part.buried>  (2) 
-3.8644

>  <Gold.PLP.part.hbond>  (2) 
-2.0000

>  <Gold.PLP.part.metal>  (2) 
0.0000

>  <Gold.PLP.part.nonpolar>  (2) 
-12.0292

>  <Gold.PLP.part.repulsive>  (2) 
0.2664

>  <Gold.Protein.RotatedAtoms>  (2) 


>  <Gold.Protein.RotatedTorsions>  (2) 


>  <Gold.Protein.RotatedWaterAtoms>  (2) 


>  <Gold.Version>  (2) 
5.3.0

>  <PLP.Chemscore.CHOScore>  (2) 


>  <PLP.Chemscore.Hbond>  (2) 


>  <PLP.Chemscore.Internal.Correction>  (2) 


>  <PLP.Chemscore.Metal>  (2) 


>  <PLP.Fitness>  (2) 


>  <PLP.PLP>  (2) 


>  <PLP.ligand.clash>  (2) 


>  <PLP.ligand.torsion>  (2) 


>  <PLP.part.buried>  (2) 


>  <PLP.part.hbond>  (2) 


>  <PLP.part.metal>  (2) 


>  <PLP.part.nonpolar>  (2) 


>  <PLP.part.repulsive>  (2) 


>  <Version>  (2) 


$$$$
2|Compound_1|Compounds_3D_F|sdf|1|dock3|1
     RDKit          3D

  5  4  0  0  0  0  0  0  0  0999 V2000
   -5.6004  -12.3817   12.5007 B   0  0  0  0  0  0  0  0  0  0  0  0
   -5.7099  -13.9438   12.3929 C   0  0  0  0  0  0  0  0  0  0  0  0
   -6.7917  -14.4840   12.4829 O   0  0  0  0  0  0  0  0  0  0  0  0
   -4.6005  -14.6852   12.2004 N   0  0  0  0  0  0  0  0  0  0  0  0
   -4.7029  -16.1435   12.1001 C   0  0  0  0  0  0  0  0  0  0  0  0
  1  2  1  0
  2  3  2  0
  2  4  1  0
  4  5  1  0
M  END
>  <Gold.Gold.Protein.RotatedWaterAtoms>  (3) 


>  <Gold.Id.Protein>  (3) 


>  <Gold.PLP.Chemscore.CHOScore>  (3) 
0.0000

>  <Gold.PLP.Chemscore.Hbond>  (3) 
1.0000

>  <Gold.PLP.Chemscore.Internal.Correction>  (3) 
0.0000

>  <Gold.PLP.Chemscore.Metal>  (3) 
0.0000

>  <Gold.PLP.Fitness>  (3) 
20.6847

>  <Gold.PLP.PLP>  (3) 
-17.6847

>  <Gold.PLP.ligand.clash>  (3) 
0.0000

>  <Gold.PLP.ligand.torsion>  (3) 
0.0000

>  <Gold.PLP.part.buried>  (3) 
-3.8416

>  <Gold.PLP.part.hbond>  (3) 
-2.0000

>  <Gold.PLP.part.metal>  (3) 
0.0000

>  <Gold.PLP.part.nonpolar>  (3) 
-11.9898

>  <Gold.PLP.part.repulsive>  (3) 
0.2624

>  <Gold.Protein.RotatedAtoms>  (3) 


>  <Gold.Protein.RotatedTorsions>  (3) 


>  <Gold.Protein.RotatedWaterAtoms>  (3) 


>  <Gold.Version>  (3) 
5.3.0

>  <PLP.Chemscore.CHOScore>  (3) 


>  <PLP.Chemscore.Hbond>  (3) 


>  <PLP.Chemscore.Internal.Correction>  (3) 


>  <PLP.Chemscore.Metal>  (3) 


>  <PLP.Fitness>  (3) 


>  <PLP.PLP>  (3) 


>  <PLP.ligand.clash>  (3) 


>  <PLP.ligand.torsion>  (3) 


>  <PLP.part.buried>  (3) 


>  <PLP.part.hbond>  (3) 


>  <PLP.part.metal>  (3) 


>  <PLP.part.nonpolar>  (3) 


>  <PLP.part.repulsive>  (3) 


>  <Version>  (3) 


$$$$
3|Compound_3|Compounds_3D_F|sdf|2|dock1|1
     RDKit          3D

  9  8  0  0  0  0  0  0  0  0999 V2000
   -4.7876  -13.0755   12.1990 O   0  0  0  0  0  0  0  0  0  0  0  0
   -5.5326  -14.1735   12.7286 C   0  0  0  0  0  0  0  0  0  0  0  0
   -6.5660  -14.6333   11.6989 C   0  0  0  0  0  0  0  0  0  0  0  0
   -5.8980  -14.9042   10.4236 N   0  0  0  0  0  0  0  0  0  0  0  0
   -6.6110  -15.3496    9.3703 C   0  0  0  0  0  0  0  0  0  0  0  0
   -7.8066  -15.5260    9.4781 O   0  0  0  0  0  0  0  0  0  0  0  0
   -5.8955  -15.6393    8.0036 B   0  0  0  0  0  0  0  0  0  0  0  0
   -7.2491  -15.9089   12.1970 C   0  0  0  0  0  0  0  0  0  0  0  0
   -7.6142  -13.5372   11.5026 C   0  0  0  0  0  0  0  0  0  0  0  0
  1  2  1  0
  2  3  1  0
  3  4  1  0
  3  8  1  0
  3  9  1  0
  4  5  1  0
  5  6  2  0
  5  7  1  0
M  END
>  <Gold.Gold.Protein.RotatedWaterAtoms>  (4) 


>  <Gold.Id.Protein>  (4) 


>  <Gold.PLP.Chemscore.CHOScore>  (4) 
0.0000

>  <Gold.PLP.Chemscore.Hbond>  (4) 
2.0000

>  <Gold.PLP.Chemscore.Internal.Correction>  (4) 
0.0000

>  <Gold.PLP.Chemscore.Metal>  (4) 
0.0000

>  <Gold.PLP.Fitness>  (4) 
30.2559

>  <Gold.PLP.PLP>  (4) 
-24.3274

>  <Gold.PLP.ligand.clash>  (4) 
0.0000

>  <Gold.PLP.ligand.torsion>  (4) 
0.0358

>  <Gold.PLP.part.buried>  (4) 
-3.2521

>  <Gold.PLP.part.hbond>  (4) 
-2.9654

>  <Gold.PLP.part.metal>  (4) 
0.0000

>  <Gold.PLP.part.nonpolar>  (4) 
-17.7838

>  <Gold.PLP.part.repulsive>  (4) 
0.6396

>  <Gold.Protein.RotatedAtoms>  (4) 


>  <Gold.Protein.RotatedTorsions>  (4) 


>  <Gold.Protein.RotatedWaterAtoms>  (4) 


>  <Gold.Version>  (4) 
5.3.0

>  <PLP.Chemscore.CHOScore>  (4) 


>  <PLP.Chemscore.Hbond>  (4) 


>  <PLP.Chemscore.Internal.Correction>  (4) 


>  <PLP.Chemscore.Metal>  (4) 


>  <PLP.Fitness>  (4) 


>  <PLP.PLP>  (4) 


>  <PLP.ligand.clash>  (4) 


>  <PLP.ligand.torsion>  (4) 


>  <PLP.part.buried>  (4) 


>  <PLP.part.hbond>  (4) 


>  <PLP.part.metal>  (4) 


>  <PLP.part.nonpolar>  (4) 


>  <PLP.part.repulsive>  (4) 


>  <Version>  (4) 


$$$$
4|Compound_3|Compounds_3D_F|sdf|2|dock2|1
     RDKit          3D

  9  8  0  0  0  0  0  0  0  0999 V2000
   -5.4409  -15.1932    9.3167 O   0  0  0  0  0  0  0  0  0  0  0  0
   -6.1028  -15.8733   10.3846 C   0  0  0  0  0  0  0  0  0  0  0  0
   -5.2058  -15.8733   11.6235 C   0  0  0  0  0  0  0  0  0  0  0  0
   -4.8232  -14.4974   11.9499 N   0  0  0  0  0  0  0  0  0  0  0  0
   -5.7734  -13.5632   12.1511 C   0  0  0  0  0  0  0  0  0  0  0  0
   -6.9462  -13.8617   12.0622 O   0  0  0  0  0  0  0  0  0  0  0  0
   -5.3637  -12.0891   12.5015 B   0  0  0  0  0  0  0  0  0  0  0  0
   -5.9659  -16.4839   12.8031 C   0  0  0  0  0  0  0  0  0  0  0  0
   -3.9494  -16.6993   11.3444 C   0  0  0  0  0  0  0  0  0  0  0  0
  1  2  1  0
  2  3  1  0
  3  4  1  0
  3  8  1  0
  3  9  1  0
  4  5  1  0
  5  6  2  0
  5  7  1  0
M  END
>  <Gold.Gold.Protein.RotatedWaterAtoms>  (5) 


>  <Gold.Id.Protein>  (5) 


>  <Gold.PLP.Chemscore.CHOScore>  (5) 
0.0000

>  <Gold.PLP.Chemscore.Hbond>  (5) 
1.9750

>  <Gold.PLP.Chemscore.Internal.Correction>  (5) 
0.0000

>  <Gold.PLP.Chemscore.Metal>  (5) 
0.0000

>  <Gold.PLP.Fitness>  (5) 
32.7930

>  <Gold.PLP.PLP>  (5) 
-26.9651

>  <Gold.PLP.ligand.clash>  (5) 
0.0000

>  <Gold.PLP.ligand.torsion>  (5) 
0.0485

>  <Gold.PLP.part.buried>  (5) 
-4.4008

>  <Gold.PLP.part.hbond>  (5) 
-4.0000

>  <Gold.PLP.part.metal>  (5) 
0.0000

>  <Gold.PLP.part.nonpolar>  (5) 
-18.6216

>  <Gold.PLP.part.repulsive>  (5) 
0.2351

>  <Gold.Protein.RotatedAtoms>  (5) 


>  <Gold.Protein.RotatedTorsions>  (5) 


>  <Gold.Protein.RotatedWaterAtoms>  (5) 


>  <Gold.Version>  (5) 
5.3.0

>  <PLP.Chemscore.CHOScore>  (5) 


>  <PLP.Chemscore.Hbond>  (5) 


>  <PLP.Chemscore.Internal.Correction>  (5) 


>  <PLP.Chemscore.Metal>  (5) 


>  <PLP.Fitness>  (5) 


>  <PLP.PLP>  (5) 


>  <PLP.ligand.clash>  (5) 


>  <PLP.ligand.torsion>  (5) 


>  <PLP.part.buried>  (5) 


>  <PLP.part.hbond>  (5) 


>  <PLP.part.metal>  (5) 


>  <PLP.part.nonpolar>  (5) 


>  <PLP.part.repulsive>  (5) 


>  <Version>  (5) 


$$$$
5|Compound_3|Compounds_3D_F|sdf|2|dock3|1
     RDKit          3D

  9  8  0  0  0  0  0  0  0  0999 V2000
   -5.1687  -15.3407    9.2422 O   0  0  0  0  0  0  0  0  0  0  0  0
   -5.8930  -16.0048   10.2792 C   0  0  0  0  0  0  0  0  0  0  0  0
   -5.0733  -15.9810   11.5703 C   0  0  0  0  0  0  0  0  0  0  0  0
   -4.7908  -14.5931   11.9443 N   0  0  0  0  0  0  0  0  0  0  0  0
   -5.8039  -13.7198   12.1092 C   0  0  0  0  0  0  0  0  0  0  0  0
   -6.9503  -14.0832   11.9482 O   0  0  0  0  0  0  0  0  0  0  0  0
   -5.5013  -12.2329   12.5106 B   0  0  0  0  0  0  0  0  0  0  0  0
   -5.8664  -16.6588   12.6900 C   0  0  0  0  0  0  0  0  0  0  0  0
   -3.7570  -16.7288   11.3534 C   0  0  0  0  0  0  0  0  0  0  0  0
  1  2  1  0
  2  3  1  0
  3  4  1  0
  3  8  1  0
  3  9  1  0
  4  5  1  0
  5  6  2  0
  5  7  1  0
M  END
>  <Gold.Gold.Protein.RotatedWaterAtoms>  (6) 


>  <Gold.Id.Protein>  (6) 


>  <Gold.PLP.Chemscore.CHOScore>  (6) 
0.0000

>  <Gold.PLP.Chemscore.Hbond>  (6) 
2.2500

>  <Gold.PLP.Chemscore.Internal.Correction>  (6) 
0.0000

>  <Gold.PLP.Chemscore.Metal>  (6) 
0.0000

>  <Gold.PLP.Fitness>  (6) 
32.6309

>  <Gold.PLP.PLP>  (6) 
-25.9325

>  <Gold.PLP.ligand.clash>  (6) 
0.0000

>  <Gold.PLP.ligand.torsion>  (6) 
0.0258

>  <Gold.PLP.part.buried>  (6) 
-4.0397

>  <Gold.PLP.part.hbond>  (6) 
-3.7539

>  <Gold.PLP.part.metal>  (6) 
0.0000

>  <Gold.PLP.part.nonpolar>  (6) 
-18.5059

>  <Gold.PLP.part.repulsive>  (6) 
0.2210

>  <Gold.Protein.RotatedAtoms>  (6) 


>  <Gold.Protein.RotatedTorsions>  (6) 


>  <Gold.Protein.RotatedWaterAtoms>  (6) 


>  <Gold.Version>  (6) 
5.3.0

>  <PLP.Chemscore.CHOScore>  (6) 


>  <PLP.Chemscore.Hbond>  (6) 


>  <PLP.Chemscore.Internal.Correction>  (6) 


>  <PLP.Chemscore.Metal>  (6) 


>  <PLP.Fitness>  (6) 


>  <PLP.PLP>  (6) 


>  <PLP.ligand.clash>  (6) 


>  <PLP.ligand.torsion>  (6) 


>  <PLP.part.buried>  (6) 


>  <PLP.part.hbond>  (6) 


>  <PLP.part.metal>  (6) 


>  <PLP.part.nonpolar>  (6) 


>  <PLP.part.repulsive>  (6) 


>  <Version>  (6) 


$$$$
6|Compound_3|Compounds_3D_F|sdf|2|dock4|1
     RDKit          3D

  9  8  0  0  0  0  0  0  0  0999 V2000
   -5.4965  -15.2456    9.4089 O   0  0  0  0  0  0  0  0  0  0  0  0
   -6.0912  -15.9297   10.5132 C   0  0  0  0  0  0  0  0  0  0  0  0
   -5.1617  -15.8475   11.7251 C   0  0  0  0  0  0  0  0  0  0  0  0
   -4.8320  -14.4456   11.9940 N   0  0  0  0  0  0  0  0  0  0  0  0
   -5.8165  -13.5514   12.2112 C   0  0  0  0  0  0  0  0  0  0  0  0
   -6.9762  -13.9073   12.1844 O   0  0  0  0  0  0  0  0  0  0  0  0
   -5.4634  -12.0495   12.5000 B   0  0  0  0  0  0  0  0  0  0  0  0
   -5.8615  -16.4491   12.9459 C   0  0  0  0  0  0  0  0  0  0  0  0
   -3.8777  -16.6271   11.4380 C   0  0  0  0  0  0  0  0  0  0  0  0
  1  2  1  0
  2  3  1  0
  3  4  1  0
  3  8  1  0
  3  9  1  0
  4  5  1  0
  5  6  2  0
  5  7  1  0
M  END
>  <Gold.Gold.Protein.RotatedWaterAtoms>  (7) 


>  <Gold.Id.Protein>  (7) 


>  <Gold.PLP.Chemscore.CHOScore>  (7) 
0.0000

>  <Gold.PLP.Chemscore.Hbond>  (7) 
1.9913

>  <Gold.PLP.Chemscore.Internal.Correction>  (7) 
0.0000

>  <Gold.PLP.Chemscore.Metal>  (7) 
0.0000

>  <Gold.PLP.Fitness>  (7) 
32.5843

>  <Gold.PLP.PLP>  (7) 
-26.6967

>  <Gold.PLP.ligand.clash>  (7) 
0.0000

>  <Gold.PLP.ligand.torsion>  (7) 
0.0431

>  <Gold.PLP.part.buried>  (7) 
-4.3360

>  <Gold.PLP.part.hbond>  (7) 
-4.0000

>  <Gold.PLP.part.metal>  (7) 
0.0000

>  <Gold.PLP.part.nonpolar>  (7) 
-18.8466

>  <Gold.PLP.part.repulsive>  (7) 
0.2354

>  <Gold.Protein.RotatedAtoms>  (7) 


>  <Gold.Protein.RotatedTorsions>  (7) 


>  <Gold.Protein.RotatedWaterAtoms>  (7) 


>  <Gold.Version>  (7) 
5.3.0

>  <PLP.Chemscore.CHOScore>  (7) 


>  <PLP.Chemscore.Hbond>  (7) 


>  <PLP.Chemscore.Internal.Correction>  (7) 


>  <PLP.Chemscore.Metal>  (7) 


>  <PLP.Fitness>  (7) 


>  <PLP.PLP>  (7) 


>  <PLP.ligand.clash>  (7) 


>  <PLP.ligand.torsion>  (7) 


>  <PLP.part.buried>  (7) 


>  <PLP.part.hbond>  (7) 


>  <PLP.part.metal>  (7) 


>  <PLP.part.nonpolar>  (7) 


>  <PLP.part.repulsive>  (7) 


>  <Version>  (7) 


$$$$
7|Compound_6|Compounds_3D_F|sdf|3|dock1|1
     RDKit          3D

 11 10  0  0  0  0  0  0  0  0999 V2000
   -8.1985  -16.4413    7.3749 B   0  0  0  0  0  0  0  0  0  0  0  0
   -7.8442  -16.1828    8.8820 C   0  0  0  0  0  0  0  0  0  0  0  0
   -7.1617  -16.9793    9.4902 O   0  0  0  0  0  0  0  0  0  0  0  0
   -8.2992  -15.0747    9.5005 N   0  0  0  0  0  0  0  0  0  0  0  0
   -7.9686  -14.8336   10.9075 C   0  0  0  0  0  0  0  0  0  0  0  0
   -8.5162  -13.4949   11.3297 C   0  0  0  0  0  0  0  0  0  0  0  0
   -9.7070  -13.2937   11.3044 O   0  0  0  0  0  0  0  0  0  0  0  0
   -7.6801  -12.5247   11.7348 O   0  0  0  0  0  0  0  0  0  0  0  0
   -8.1450  -11.1555   11.6006 C   0  0  0  0  0  0  0  0  0  0  0  0
   -8.5868  -15.9336   11.7722 C   0  0  0  0  0  0  0  0  0  0  0  0
   -6.4488  -14.8407   11.0829 C   0  0  0  0  0  0  0  0  0  0  0  0
  1  2  1  0
  2  3  2  0
  2  4  1  0
  4  5  1  0
  5  6  1  0
  5 10  1  0
  5 11  1  0
  6  7  2  0
  6  8  1  0
  8  9  1  0
M  END
>  <Gold.Gold.Protein.RotatedWaterAtoms>  (8) 


>  <Gold.Id.Protein>  (8) 


>  <Gold.PLP.Chemscore.CHOScore>  (8) 
0.0000

>  <Gold.PLP.Chemscore.Hbond>  (8) 
2.0000

>  <Gold.PLP.Chemscore.Internal.Correction>  (8) 
0.0005

>  <Gold.PLP.Chemscore.Metal>  (8) 
0.0000

>  <Gold.PLP.Fitness>  (8) 
30.4591

>  <Gold.PLP.PLP>  (8) 
-25.2173

>  <Gold.PLP.ligand.clash>  (8) 
0.0000

>  <Gold.PLP.ligand.torsion>  (8) 
0.3794

>  <Gold.PLP.part.buried>  (8) 
-5.5127

>  <Gold.PLP.part.hbond>  (8) 
-2.0000

>  <Gold.PLP.part.metal>  (8) 
0.0000

>  <Gold.PLP.part.nonpolar>  (8) 
-18.6211

>  <Gold.PLP.part.repulsive>  (8) 
0.3580

>  <Gold.Protein.RotatedAtoms>  (8) 


>  <Gold.Protein.RotatedTorsions>  (8) 


>  <Gold.Protein.RotatedWaterAtoms>  (8) 


>  <Gold.Version>  (8) 
5.3.0

>  <PLP.Chemscore.CHOScore>  (8) 


>  <PLP.Chemscore.Hbond>  (8) 


>  <PLP.Chemscore.Internal.Correction>  (8) 


>  <PLP.Chemscore.Metal>  (8) 


>  <PLP.Fitness>  (8) 


>  <PLP.PLP>  (8) 


>  <PLP.ligand.clash>  (8) 


>  <PLP.ligand.torsion>  (8) 


>  <PLP.part.buried>  (8) 


>  <PLP.part.hbond>  (8) 


>  <PLP.part.metal>  (8) 


>  <PLP.part.nonpolar>  (8) 


>  <PLP.part.repulsive>  (8) 


>  <Version>  (8) 


$$$$
8|Compound_6|Compounds_3D_F|sdf|3|dock2|1
     RDKit          3D

 11 10  0  0  0  0  0  0  0  0999 V2000
   -8.1932  -16.3415    7.5303 B   0  0  0  0  0  0  0  0  0  0  0  0
   -7.9346  -16.0832    9.0568 C   0  0  0  0  0  0  0  0  0  0  0  0
   -7.3708  -16.9215    9.7273 O   0  0  0  0  0  0  0  0  0  0  0  0
   -8.3399  -14.9286    9.6228 N   0  0  0  0  0  0  0  0  0  0  0  0
   -8.0987  -14.6877   11.0479 C   0  0  0  0  0  0  0  0  0  0  0  0
   -8.6430  -13.3350   11.4276 C   0  0  0  0  0  0  0  0  0  0  0  0
   -9.8259  -13.1105   11.3306 O   0  0  0  0  0  0  0  0  0  0  0  0
   -7.8128  -12.3782   11.8744 O   0  0  0  0  0  0  0  0  0  0  0  0
   -8.1839  -11.0017   11.5980 C   0  0  0  0  0  0  0  0  0  0  0  0
   -8.7978  -15.7691   11.8733 C   0  0  0  0  0  0  0  0  0  0  0  0
   -6.5946  -14.7275   11.3245 C   0  0  0  0  0  0  0  0  0  0  0  0
  1  2  1  0
  2  3  2  0
  2  4  1  0
  4  5  1  0
  5  6  1  0
  5 10  1  0
  5 11  1  0
  6  7  2  0
  6  8  1  0
  8  9  1  0
M  END
>  <Gold.Gold.Protein.RotatedWaterAtoms>  (9) 


>  <Gold.Id.Protein>  (9) 


>  <Gold.PLP.Chemscore.CHOScore>  (9) 
0.0000

>  <Gold.PLP.Chemscore.Hbond>  (9) 
2.0000

>  <Gold.PLP.Chemscore.Internal.Correction>  (9) 
0.0005

>  <Gold.PLP.Chemscore.Metal>  (9) 
0.0000

>  <Gold.PLP.Fitness>  (9) 
30.7227

>  <Gold.PLP.PLP>  (9) 
-25.5106

>  <Gold.PLP.ligand.clash>  (9) 
0.0000

>  <Gold.PLP.ligand.torsion>  (9) 
0.3942

>  <Gold.PLP.part.buried>  (9) 
-3.5408

>  <Gold.PLP.part.hbond>  (9) 
-2.0000

>  <Gold.PLP.part.metal>  (9) 
0.0000

>  <Gold.PLP.part.nonpolar>  (9) 
-19.6688

>  <Gold.PLP.part.repulsive>  (9) 
0.3722

>  <Gold.Protein.RotatedAtoms>  (9) 


>  <Gold.Protein.RotatedTorsions>  (9) 


>  <Gold.Protein.RotatedWaterAtoms>  (9) 


>  <Gold.Version>  (9) 
5.3.0

>  <PLP.Chemscore.CHOScore>  (9) 


>  <PLP.Chemscore.Hbond>  (9) 


>  <PLP.Chemscore.Internal.Correction>  (9) 


>  <PLP.Chemscore.Metal>  (9) 


>  <PLP.Fitness>  (9) 


>  <PLP.PLP>  (9) 


>  <PLP.ligand.clash>  (9) 


>  <PLP.ligand.torsion>  (9) 


>  <PLP.part.buried>  (9) 


>  <PLP.part.hbond>  (9) 


>  <PLP.part.metal>  (9) 


>  <PLP.part.nonpolar>  (9) 


>  <PLP.part.repulsive>  (9) 


>  <Version>  (9) 


$$$$
9|Compound_6|Compounds_3D_F|sdf|3|dock3|1
     RDKit          3D

 11 10  0  0  0  0  0  0  0  0999 V2000
  -13.6741  -20.9934   15.0140 B   0  0  0  0  0  0  0  0  0  0  0  0
  -12.9434  -20.5997   13.6818 C   0  0  0  0  0  0  0  0  0  0  0  0
  -11.8106  -20.9798   13.4757 O   0  0  0  0  0  0  0  0  0  0  0  0
  -13.5757  -19.8384   12.7664 N   0  0  0  0  0  0  0  0  0  0  0  0
  -12.8934  -19.4707   11.5228 C   0  0  0  0  0  0  0  0  0  0  0  0
  -11.6540  -18.6772   11.8459 C   0  0  0  0  0  0  0  0  0  0  0  0
  -11.7462  -17.6210   12.4246 O   0  0  0  0  0  0  0  0  0  0  0  0
  -10.4457  -19.1445   11.4907 O   0  0  0  0  0  0  0  0  0  0  0  0
   -9.3266  -18.2251   11.5953 C   0  0  0  0  0  0  0  0  0  0  0  0
  -12.5036  -20.7385   10.7610 C   0  0  0  0  0  0  0  0  0  0  0  0
  -13.8295  -18.6239   10.6585 C   0  0  0  0  0  0  0  0  0  0  0  0
  1  2  1  0
  2  3  2  0
  2  4  1  0
  4  5  1  0
  5  6  1  0
  5 10  1  0
  5 11  1  0
  6  7  2  0
  6  8  1  0
  8  9  1  0
M  END
>  <Gold.Gold.Protein.RotatedWaterAtoms>  (10) 


>  <Gold.Id.Protein>  (10) 


>  <Gold.PLP.Chemscore.CHOScore>  (10) 
0.0000

>  <Gold.PLP.Chemscore.Hbond>  (10) 
2.9920

>  <Gold.PLP.Chemscore.Internal.Correction>  (10) 
0.0005

>  <Gold.PLP.Chemscore.Metal>  (10) 
0.0000

>  <Gold.PLP.Fitness>  (10) 
29.4402

>  <Gold.PLP.PLP>  (10) 
-20.7259

>  <Gold.PLP.ligand.clash>  (10) 
0.0000

>  <Gold.PLP.ligand.torsion>  (10) 
0.1311

>  <Gold.PLP.part.buried>  (10) 
-4.1401

>  <Gold.PLP.part.hbond>  (10) 
-3.0000

>  <Gold.PLP.part.metal>  (10) 
0.0000

>  <Gold.PLP.part.nonpolar>  (10) 
-13.5698

>  <Gold.PLP.part.repulsive>  (10) 
0.1198

>  <Gold.Protein.RotatedAtoms>  (10) 


>  <Gold.Protein.RotatedTorsions>  (10) 


>  <Gold.Protein.RotatedWaterAtoms>  (10) 


>  <Gold.Version>  (10) 
5.3.0

>  <PLP.Chemscore.CHOScore>  (10) 


>  <PLP.Chemscore.Hbond>  (10) 


>  <PLP.Chemscore.Internal.Correction>  (10) 


>  <PLP.Chemscore.Metal>  (10) 


>  <PLP.Fitness>  (10) 


>  <PLP.PLP>  (10) 


>  <PLP.ligand.clash>  (10) 


>  <PLP.ligand.torsion>  (10) 


>  <PLP.part.buried>  (10) 


>  <PLP.part.hbond>  (10) 


>  <PLP.part.metal>  (10) 


>  <PLP.part.nonpolar>  (10) 


>  <PLP.part.repulsive>  (10) 


>  <Version>  (10) 


$$$$
10|Compound_6|Compounds_3D_F|sdf|3|dock4|1
     RDKit          3D

 11 10  0  0  0  0  0  0  0  0999 V2000
   -8.1962  -16.3967    7.5082 B   0  0  0  0  0  0  0  0  0  0  0  0
   -7.9150  -16.1381    9.0307 C   0  0  0  0  0  0  0  0  0  0  0  0
   -7.3303  -16.9709    9.6899 O   0  0  0  0  0  0  0  0  0  0  0  0
   -8.3242  -14.9893    9.6055 N   0  0  0  0  0  0  0  0  0  0  0  0
   -8.0619  -14.7481   11.0269 C   0  0  0  0  0  0  0  0  0  0  0  0
   -8.5801  -13.3858   11.4089 C   0  0  0  0  0  0  0  0  0  0  0  0
   -9.7564  -13.1341   11.2995 O   0  0  0  0  0  0  0  0  0  0  0  0
   -7.7339  -12.4508   11.8714 O   0  0  0  0  0  0  0  0  0  0  0  0
   -8.0706  -11.0646   11.5996 C   0  0  0  0  0  0  0  0  0  0  0  0
   -8.7681  -15.8159   11.8641 C   0  0  0  0  0  0  0  0  0  0  0  0
   -6.5554  -14.8110   11.2855 C   0  0  0  0  0  0  0  0  0  0  0  0
  1  2  1  0
  2  3  2  0
  2  4  1  0
  4  5  1  0
  5  6  1  0
  5 10  1  0
  5 11  1  0
  6  7  2  0
  6  8  1  0
  8  9  1  0
M  END
>  <Gold.Gold.Protein.RotatedWaterAtoms>  (11) 


>  <Gold.Id.Protein>  (11) 


>  <Gold.PLP.Chemscore.CHOScore>  (11) 
0.0000

>  <Gold.PLP.Chemscore.Hbond>  (11) 
2.0000

>  <Gold.PLP.Chemscore.Internal.Correction>  (11) 
0.0001

>  <Gold.PLP.Chemscore.Metal>  (11) 
0.0000

>  <Gold.PLP.Fitness>  (11) 
30.6859

>  <Gold.PLP.PLP>  (11) 
-25.4500

>  <Gold.PLP.ligand.clash>  (11) 
0.0000

>  <Gold.PLP.ligand.torsion>  (11) 
0.3821

>  <Gold.PLP.part.buried>  (11) 
-4.1933

>  <Gold.PLP.part.hbond>  (11) 
-2.0000

>  <Gold.PLP.part.metal>  (11) 
0.0000

>  <Gold.PLP.part.nonpolar>  (11) 
-19.6557

>  <Gold.PLP.part.repulsive>  (11) 
0.3650

>  <Gold.Protein.RotatedAtoms>  (11) 


>  <Gold.Protein.RotatedTorsions>  (11) 


>  <Gold.Protein.RotatedWaterAtoms>  (11) 


>  <Gold.Version>  (11) 
5.3.0

>  <PLP.Chemscore.CHOScore>  (11) 


>  <PLP.Chemscore.Hbond>  (11) 


>  <PLP.Chemscore.Internal.Correction>  (11) 


>  <PLP.Chemscore.Metal>  (11) 


>  <PLP.Fitness>  (11) 


>  <PLP.PLP>  (11) 


>  <PLP.ligand.clash>  (11) 


>  <PLP.ligand.torsion>  (11) 


>  <PLP.part.buried>  (11) 


>  <PLP.part.hbond>  (11) 


>  <PLP.part.metal>  (11) 


>  <PLP.part.nonpolar>  (11) 


>  <PLP.part.repulsive>  (11) 


>  <Version>  (11) 


$$$$
11|Compound_8|Compounds_3D_F|sdf|4|dock1|1
     RDKit          3D

  8  7  0  0  0  0  0  0  0  0999 V2000
  -10.2993  -14.4581   12.9096 O   0  0  0  0  0  0  0  0  0  0  0  0
   -9.4208  -13.4095   12.4976 C   0  0  0  0  0  0  0  0  0  0  0  0
   -8.2429  -14.0046   11.7243 C   0  0  0  0  0  0  0  0  0  0  0  0
   -8.6878  -14.3978   10.3846 N   0  0  0  0  0  0  0  0  0  0  0  0
   -8.5698  -15.6795    9.9839 C   0  0  0  0  0  0  0  0  0  0  0  0
   -8.0963  -16.5065   10.7333 O   0  0  0  0  0  0  0  0  0  0  0  0
   -9.0457  -16.1001    8.5488 B   0  0  0  0  0  0  0  0  0  0  0  0
   -7.1303  -12.9609   11.6065 C   0  0  0  0  0  0  0  0  0  0  0  0
  1  2  1  0
  2  3  1  0
  3  4  1  0
  3  8  1  0
  4  5  1  0
  5  6  2  0
  5  7  1  0
M  END
>  <Gold.Gold.Protein.RotatedWaterAtoms>  (12) 


>  <Gold.Id.Protein>  (12) 


>  <Gold.PLP.Chemscore.CHOScore>  (12) 
0.0000

>  <Gold.PLP.Chemscore.Hbond>  (12) 
3.0213

>  <Gold.PLP.Chemscore.Internal.Correction>  (12) 
0.0000

>  <Gold.PLP.Chemscore.Metal>  (12) 
0.0000

>  <Gold.PLP.Fitness>  (12) 
31.4529

>  <Gold.PLP.PLP>  (12) 
-22.6103

>  <Gold.PLP.ligand.clash>  (12) 
0.0000

>  <Gold.PLP.ligand.torsion>  (12) 
0.1107

>  <Gold.PLP.part.buried>  (12) 
-3.3106

>  <Gold.PLP.part.hbond>  (12) 
-4.3121

>  <Gold.PLP.part.metal>  (12) 
0.0000

>  <Gold.PLP.part.nonpolar>  (12) 
-14.3312

>  <Gold.PLP.part.repulsive>  (12) 
0.1142

>  <Gold.Protein.RotatedAtoms>  (12) 


>  <Gold.Protein.RotatedTorsions>  (12) 


>  <Gold.Protein.RotatedWaterAtoms>  (12) 


>  <Gold.Version>  (12) 
5.3.0

>  <PLP.Chemscore.CHOScore>  (12) 


>  <PLP.Chemscore.Hbond>  (12) 


>  <PLP.Chemscore.Internal.Correction>  (12) 


>  <PLP.Chemscore.Metal>  (12) 


>  <PLP.Fitness>  (12) 


>  <PLP.PLP>  (12) 


>  <PLP.ligand.clash>  (12) 


>  <PLP.ligand.torsion>  (12) 


>  <PLP.part.buried>  (12) 


>  <PLP.part.hbond>  (12) 


>  <PLP.part.metal>  (12) 


>  <PLP.part.nonpolar>  (12) 


>  <PLP.part.repulsive>  (12) 


>  <Version>  (12) 


$$$$
12|Compound_8|Compounds_3D_F|sdf|4|dock2|1
     RDKit          3D

  8  7  0  0  0  0  0  0  0  0999 V2000
  -10.2415  -14.3162   12.7869 O   0  0  0  0  0  0  0  0  0  0  0  0
   -9.3120  -13.4028   12.2013 C   0  0  0  0  0  0  0  0  0  0  0  0
   -8.1393  -14.1815   11.6028 C   0  0  0  0  0  0  0  0  0  0  0  0
   -8.4180  -14.4771   10.1949 N   0  0  0  0  0  0  0  0  0  0  0  0
   -7.6338  -15.3407    9.5191 C   0  0  0  0  0  0  0  0  0  0  0  0
   -6.6986  -15.8729   10.0775 O   0  0  0  0  0  0  0  0  0  0  0  0
   -7.9322  -15.6566    8.0111 B   0  0  0  0  0  0  0  0  0  0  0  0
   -6.8642  -13.3421   11.7051 C   0  0  0  0  0  0  0  0  0  0  0  0
  1  2  1  0
  2  3  1  0
  3  4  1  0
  3  8  1  0
  4  5  1  0
  5  6  2  0
  5  7  1  0
M  END
>  <Gold.Gold.Protein.RotatedWaterAtoms>  (13) 


>  <Gold.Id.Protein>  (13) 


>  <Gold.PLP.Chemscore.CHOScore>  (13) 
0.0000

>  <Gold.PLP.Chemscore.Hbond>  (13) 
2.9766

>  <Gold.PLP.Chemscore.Internal.Correction>  (13) 
0.0000

>  <Gold.PLP.Chemscore.Metal>  (13) 
0.0000

>  <Gold.PLP.Fitness>  (13) 
30.5708

>  <Gold.PLP.PLP>  (13) 
-22.6857

>  <Gold.PLP.ligand.clash>  (13) 
0.0000

>  <Gold.PLP.ligand.torsion>  (13) 
0.5224

>  <Gold.PLP.part.buried>  (13) 
-3.6451

>  <Gold.PLP.part.hbond>  (13) 
-4.0000

>  <Gold.PLP.part.metal>  (13) 
0.0000

>  <Gold.PLP.part.nonpolar>  (13) 
-14.3517

>  <Gold.PLP.part.repulsive>  (13) 
0.1755

>  <Gold.Protein.RotatedAtoms>  (13) 


>  <Gold.Protein.RotatedTorsions>  (13) 


>  <Gold.Protein.RotatedWaterAtoms>  (13) 


>  <Gold.Version>  (13) 
5.3.0

>  <PLP.Chemscore.CHOScore>  (13) 


>  <PLP.Chemscore.Hbond>  (13) 


>  <PLP.Chemscore.Internal.Correction>  (13) 


>  <PLP.Chemscore.Metal>  (13) 


>  <PLP.Fitness>  (13) 


>  <PLP.PLP>  (13) 


>  <PLP.ligand.clash>  (13) 


>  <PLP.ligand.torsion>  (13) 


>  <PLP.part.buried>  (13) 


>  <PLP.part.hbond>  (13) 


>  <PLP.part.metal>  (13) 


>  <PLP.part.nonpolar>  (13) 


>  <PLP.part.repulsive>  (13) 


>  <Version>  (13) 


$$$$
13|Compound_8|Compounds_3D_F|sdf|4|dock3|1
     RDKit          3D

  8  7  0  0  0  0  0  0  0  0999 V2000
   -8.4000  -13.5786   12.9943 O   0  0  0  0  0  0  0  0  0  0  0  0
   -7.4110  -14.2538   12.2151 C   0  0  0  0  0  0  0  0  0  0  0  0
   -6.0173  -13.8612   12.7079 C   0  0  0  0  0  0  0  0  0  0  0  0
   -5.0065  -14.6249   11.9714 N   0  0  0  0  0  0  0  0  0  0  0  0
   -4.9582  -15.9671   12.0875 C   0  0  0  0  0  0  0  0  0  0  0  0
   -5.7523  -16.5415   12.8010 O   0  0  0  0  0  0  0  0  0  0  0  0
   -3.8751  -16.7845   11.2991 B   0  0  0  0  0  0  0  0  0  0  0  0
   -5.7963  -12.3652   12.4750 C   0  0  0  0  0  0  0  0  0  0  0  0
  1  2  1  0
  2  3  1  0
  3  4  1  0
  3  8  1  0
  4  5  1  0
  5  6  2  0
  5  7  1  0
M  END
>  <Gold.Gold.Protein.RotatedWaterAtoms>  (14) 


>  <Gold.Id.Protein>  (14) 


>  <Gold.PLP.Chemscore.CHOScore>  (14) 
0.0000

>  <Gold.PLP.Chemscore.Hbond>  (14) 
1.9663

>  <Gold.PLP.Chemscore.Internal.Correction>  (14) 
0.0000

>  <Gold.PLP.Chemscore.Metal>  (14) 
0.0000

>  <Gold.PLP.Fitness>  (14) 
30.9119

>  <Gold.PLP.PLP>  (14) 
-25.0574

>  <Gold.PLP.ligand.clash>  (14) 
0.0000

>  <Gold.PLP.ligand.torsion>  (14) 
0.0221

>  <Gold.PLP.part.buried>  (14) 
-5.4466

>  <Gold.PLP.part.hbond>  (14) 
-2.4739

>  <Gold.PLP.part.metal>  (14) 
0.0000

>  <Gold.PLP.part.nonpolar>  (14) 
-17.5582

>  <Gold.PLP.part.repulsive>  (14) 
0.1495

>  <Gold.Protein.RotatedAtoms>  (14) 


>  <Gold.Protein.RotatedTorsions>  (14) 


>  <Gold.Protein.RotatedWaterAtoms>  (14) 


>  <Gold.Version>  (14) 
5.3.0

>  <PLP.Chemscore.CHOScore>  (14) 


>  <PLP.Chemscore.Hbond>  (14) 


>  <PLP.Chemscore.Internal.Correction>  (14) 


>  <PLP.Chemscore.Metal>  (14) 


>  <PLP.Fitness>  (14) 


>  <PLP.PLP>  (14) 


>  <PLP.ligand.clash>  (14) 


>  <PLP.ligand.torsion>  (14) 


>  <PLP.part.buried>  (14) 


>  <PLP.part.hbond>  (14) 


>  <PLP.part.metal>  (14) 


>  <PLP.part.nonpolar>  (14) 


>  <PLP.part.repulsive>  (14) 


>  <Version>  (14) 


$$$$
14|Compound_8|Compounds_3D_F|sdf|4|dock4|1
     RDKit          3D

  8  7  0  0  0  0  0  0  0  0999 V2000
   -9.9675  -14.4416   12.6229 O   0  0  0  0  0  0  0  0  0  0  0  0
   -9.0978  -13.4328   12.1060 C   0  0  0  0  0  0  0  0  0  0  0  0
   -7.6440  -13.8781   12.2720 C   0  0  0  0  0  0  0  0  0  0  0  0
   -7.3233  -14.8850   11.2568 N   0  0  0  0  0  0  0  0  0  0  0  0
   -6.8140  -16.0772   11.6266 C   0  0  0  0  0  0  0  0  0  0  0  0
   -6.6226  -16.3156   12.7997 O   0  0  0  0  0  0  0  0  0  0  0  0
   -6.4701  -17.1550   10.5390 B   0  0  0  0  0  0  0  0  0  0  0  0
   -6.7184  -12.6714   12.1041 C   0  0  0  0  0  0  0  0  0  0  0  0
  1  2  1  0
  2  3  1  0
  3  4  1  0
  3  8  1  0
  4  5  1  0
  5  6  2  0
  5  7  1  0
M  END
>  <Gold.Gold.Protein.RotatedWaterAtoms>  (15) 


>  <Gold.Id.Protein>  (15) 


>  <Gold.PLP.Chemscore.CHOScore>  (15) 
0.0000

>  <Gold.PLP.Chemscore.Hbond>  (15) 
2.0000

>  <Gold.PLP.Chemscore.Internal.Correction>  (15) 
0.0000

>  <Gold.PLP.Chemscore.Metal>  (15) 
0.0000

>  <Gold.PLP.Fitness>  (15) 
28.4638

>  <Gold.PLP.PLP>  (15) 
-22.7899

>  <Gold.PLP.ligand.clash>  (15) 
0.0000

>  <Gold.PLP.ligand.torsion>  (15) 
0.1631

>  <Gold.PLP.part.buried>  (15) 
-5.0706

>  <Gold.PLP.part.hbond>  (15) 
-3.3417

>  <Gold.PLP.part.metal>  (15) 
0.0000

>  <Gold.PLP.part.nonpolar>  (15) 
-14.5829

>  <Gold.PLP.part.repulsive>  (15) 
0.1194

>  <Gold.Protein.RotatedAtoms>  (15) 


>  <Gold.Protein.RotatedTorsions>  (15) 


>  <Gold.Protein.RotatedWaterAtoms>  (15) 


>  <Gold.Version>  (15) 
5.3.0

>  <PLP.Chemscore.CHOScore>  (15) 


>  <PLP.Chemscore.Hbond>  (15) 


>  <PLP.Chemscore.Internal.Correction>  (15) 


>  <PLP.Chemscore.Metal>  (15) 


>  <PLP.Fitness>  (15) 


>  <PLP.PLP>  (15) 


>  <PLP.ligand.clash>  (15) 


>  <PLP.ligand.torsion>  (15) 


>  <PLP.part.buried>  (15) 


>  <PLP.part.hbond>  (15) 


>  <PLP.part.metal>  (15) 


>  <PLP.part.nonpolar>  (15) 


>  <PLP.part.repulsive>  (15) 


>  <Version>  (15) 


$$$$
15|Compound_8|Compounds_3D_F|sdf|4|dock5|1
     RDKit          3D

  8  7  0  0  0  0  0  0  0  0999 V2000
   -8.3288  -13.6892   12.9626 O   0  0  0  0  0  0  0  0  0  0  0  0
   -7.3680  -14.4132   12.1921 C   0  0  0  0  0  0  0  0  0  0  0  0
   -5.9586  -14.0553   12.6667 C   0  0  0  0  0  0  0  0  0  0  0  0
   -4.9738  -14.7912   11.8692 N   0  0  0  0  0  0  0  0  0  0  0  0
   -4.8508  -16.1259   12.0135 C   0  0  0  0  0  0  0  0  0  0  0  0
   -5.5563  -16.7167   12.8028 O   0  0  0  0  0  0  0  0  0  0  0  0
   -3.7955  -16.9136   11.1598 B   0  0  0  0  0  0  0  0  0  0  0  0
   -5.7301  -12.5518   12.4988 C   0  0  0  0  0  0  0  0  0  0  0  0
  1  2  1  0
  2  3  1  0
  3  4  1  0
  3  8  1  0
  4  5  1  0
  5  6  2  0
  5  7  1  0
M  END
>  <Gold.Gold.Protein.RotatedWaterAtoms>  (16) 


>  <Gold.Id.Protein>  (16) 


>  <Gold.PLP.Chemscore.CHOScore>  (16) 
0.0000

>  <Gold.PLP.Chemscore.Hbond>  (16) 
1.9750

>  <Gold.PLP.Chemscore.Internal.Correction>  (16) 
0.0000

>  <Gold.PLP.Chemscore.Metal>  (16) 
0.0000

>  <Gold.PLP.Fitness>  (16) 
30.1062

>  <Gold.PLP.PLP>  (16) 
-24.3671

>  <Gold.PLP.ligand.clash>  (16) 
0.0000

>  <Gold.PLP.ligand.torsion>  (16) 
0.0930

>  <Gold.PLP.part.buried>  (16) 
-5.4675

>  <Gold.PLP.part.hbond>  (16) 
-2.3073

>  <Gold.PLP.part.metal>  (16) 
0.0000

>  <Gold.PLP.part.nonpolar>  (16) 
-17.1397

>  <Gold.PLP.part.repulsive>  (16) 
0.1405

>  <Gold.Protein.RotatedAtoms>  (16) 


>  <Gold.Protein.RotatedTorsions>  (16) 


>  <Gold.Protein.RotatedWaterAtoms>  (16) 


>  <Gold.Version>  (16) 
5.3.0

>  <PLP.Chemscore.CHOScore>  (16) 


>  <PLP.Chemscore.Hbond>  (16) 


>  <PLP.Chemscore.Internal.Correction>  (16) 


>  <PLP.Chemscore.Metal>  (16) 


>  <PLP.Fitness>  (16) 


>  <PLP.PLP>  (16) 


>  <PLP.ligand.clash>  (16) 


>  <PLP.ligand.torsion>  (16) 


>  <PLP.part.buried>  (16) 


>  <PLP.part.hbond>  (16) 


>  <PLP.part.metal>  (16) 


>  <PLP.part.nonpolar>  (16) 


>  <PLP.part.repulsive>  (16) 


>  <Version>  (16) 


$$$$
16|Compound_8|Compounds_3D_F|sdf|4|dock6|1
     RDKit          3D

  8  7  0  0  0  0  0  0  0  0999 V2000
   -8.3322  -13.7148   12.8567 O   0  0  0  0  0  0  0  0  0  0  0  0
   -7.3115  -14.4837   12.2181 C   0  0  0  0  0  0  0  0  0  0  0  0
   -5.9398  -14.0227   12.7134 C   0  0  0  0  0  0  0  0  0  0  0  0
   -4.8916  -14.7636   12.0066 N   0  0  0  0  0  0  0  0  0  0  0  0
   -4.8251  -16.1058   12.1138 C   0  0  0  0  0  0  0  0  0  0  0  0
   -5.6338  -16.6990   12.7948 O   0  0  0  0  0  0  0  0  0  0  0  0
   -3.7019  -16.8988   11.3572 B   0  0  0  0  0  0  0  0  0  0  0  0
   -5.7766  -12.5255   12.4437 C   0  0  0  0  0  0  0  0  0  0  0  0
  1  2  1  0
  2  3  1  0
  3  4  1  0
  3  8  1  0
  4  5  1  0
  5  6  2  0
  5  7  1  0
M  END
>  <Gold.Gold.Protein.RotatedWaterAtoms>  (17) 


>  <Gold.Id.Protein>  (17) 


>  <Gold.PLP.Chemscore.CHOScore>  (17) 
0.0000

>  <Gold.PLP.Chemscore.Hbond>  (17) 
1.8125

>  <Gold.PLP.Chemscore.Internal.Correction>  (17) 
0.0000

>  <Gold.PLP.Chemscore.Metal>  (17) 
0.0000

>  <Gold.PLP.Fitness>  (17) 
30.7577

>  <Gold.PLP.PLP>  (17) 
-25.3312

>  <Gold.PLP.ligand.clash>  (17) 
0.0000

>  <Gold.PLP.ligand.torsion>  (17) 
0.0055

>  <Gold.PLP.part.buried>  (17) 
-5.8457

>  <Gold.PLP.part.hbond>  (17) 
-2.5818

>  <Gold.PLP.part.metal>  (17) 
0.0000

>  <Gold.PLP.part.nonpolar>  (17) 
-17.3128

>  <Gold.PLP.part.repulsive>  (17) 
0.1459

>  <Gold.Protein.RotatedAtoms>  (17) 


>  <Gold.Protein.RotatedTorsions>  (17) 


>  <Gold.Protein.RotatedWaterAtoms>  (17) 


>  <Gold.Version>  (17) 
5.3.0

>  <PLP.Chemscore.CHOScore>  (17) 


>  <PLP.Chemscore.Hbond>  (17) 


>  <PLP.Chemscore.Internal.Correction>  (17) 


>  <PLP.Chemscore.Metal>  (17) 


>  <PLP.Fitness>  (17) 


>  <PLP.PLP>  (17) 


>  <PLP.ligand.clash>  (17) 


>  <PLP.ligand.torsion>  (17) 


>  <PLP.part.buried>  (17) 


>  <PLP.part.hbond>  (17) 


>  <PLP.part.metal>  (17) 


>  <PLP.part.nonpolar>  (17) 


>  <PLP.part.repulsive>  (17) 


>  <Version>  (17) 


$$$$
17|Compound_8|Compounds_3D_F|sdf|4|dock7|1
     RDKit          3D

  8  7  0  0  0  0  0  0  0  0999 V2000
   -4.5115  -12.5006   13.0997 O   0  0  0  0  0  0  0  0  0  0  0  0
   -5.7980  -13.1217   13.0879 C   0  0  0  0  0  0  0  0  0  0  0  0
   -6.0763  -13.6931   11.6967 C   0  0  0  0  0  0  0  0  0  0  0  0
   -5.1826  -14.8274   11.4474 N   0  0  0  0  0  0  0  0  0  0  0  0
   -5.2738  -15.9374   12.2069 C   0  0  0  0  0  0  0  0  0  0  0  0
   -6.0963  -15.9966   13.0955 O   0  0  0  0  0  0  0  0  0  0  0  0
   -4.3160  -17.1517   11.9401 B   0  0  0  0  0  0  0  0  0  0  0  0
   -7.5304  -14.1628   11.6195 C   0  0  0  0  0  0  0  0  0  0  0  0
  1  2  1  0
  2  3  1  0
  3  4  1  0
  3  8  1  0
  4  5  1  0
  5  6  2  0
  5  7  1  0
M  END
>  <Gold.Gold.Protein.RotatedWaterAtoms>  (18) 


>  <Gold.Id.Protein>  (18) 


>  <Gold.PLP.Chemscore.CHOScore>  (18) 
0.0000

>  <Gold.PLP.Chemscore.Hbond>  (18) 
1.9750

>  <Gold.PLP.Chemscore.Internal.Correction>  (18) 
0.0000

>  <Gold.PLP.Chemscore.Metal>  (18) 
0.0000

>  <Gold.PLP.Fitness>  (18) 
28.9816

>  <Gold.PLP.PLP>  (18) 
-23.1645

>  <Gold.PLP.ligand.clash>  (18) 
0.0000

>  <Gold.PLP.ligand.torsion>  (18) 
0.0540

>  <Gold.PLP.part.buried>  (18) 
-2.5467

>  <Gold.PLP.part.hbond>  (18) 
-4.1968

>  <Gold.PLP.part.metal>  (18) 
0.0000

>  <Gold.PLP.part.nonpolar>  (18) 
-16.7212

>  <Gold.PLP.part.repulsive>  (18) 
0.1893

>  <Gold.Protein.RotatedAtoms>  (18) 


>  <Gold.Protein.RotatedTorsions>  (18) 


>  <Gold.Protein.RotatedWaterAtoms>  (18) 


>  <Gold.Version>  (18) 
5.3.0

>  <PLP.Chemscore.CHOScore>  (18) 


>  <PLP.Chemscore.Hbond>  (18) 


>  <PLP.Chemscore.Internal.Correction>  (18) 


>  <PLP.Chemscore.Metal>  (18) 


>  <PLP.Fitness>  (18) 


>  <PLP.PLP>  (18) 


>  <PLP.ligand.clash>  (18) 


>  <PLP.ligand.torsion>  (18) 


>  <PLP.part.buried>  (18) 


>  <PLP.part.hbond>  (18) 


>  <PLP.part.metal>  (18) 


>  <PLP.part.nonpolar>  (18) 


>  <PLP.part.repulsive>  (18) 


>  <Version>  (18) 


$$$$
18|Compound_8|Compounds_3D_F|sdf|4|dock8|1
     RDKit          3D

  8  7  0  0  0  0  0  0  0  0999 V2000
   -8.2561  -13.5192   13.0991 O   0  0  0  0  0  0  0  0  0  0  0  0
   -7.3469  -14.3333   12.3562 C   0  0  0  0  0  0  0  0  0  0  0  0
   -5.9106  -13.9826   12.7479 C   0  0  0  0  0  0  0  0  0  0  0  0
   -4.9779  -14.7759   11.9429 N   0  0  0  0  0  0  0  0  0  0  0  0
   -4.9763  -16.1203   12.0419 C   0  0  0  0  0  0  0  0  0  0  0  0
   -5.7478  -16.6722   12.7968 O   0  0  0  0  0  0  0  0  0  0  0  0
   -3.9768  -16.9695   11.1800 B   0  0  0  0  0  0  0  0  0  0  0  0
   -5.6623  -12.4938   12.4971 C   0  0  0  0  0  0  0  0  0  0  0  0
  1  2  1  0
  2  3  1  0
  3  4  1  0
  3  8  1  0
  4  5  1  0
  5  6  2  0
  5  7  1  0
M  END
>  <Gold.Gold.Protein.RotatedWaterAtoms>  (19) 


>  <Gold.Id.Protein>  (19) 


>  <Gold.PLP.Chemscore.CHOScore>  (19) 
0.0000

>  <Gold.PLP.Chemscore.Hbond>  (19) 
1.9425

>  <Gold.PLP.Chemscore.Internal.Correction>  (19) 
0.0000

>  <Gold.PLP.Chemscore.Metal>  (19) 
0.0000

>  <Gold.PLP.Fitness>  (19) 
30.4807

>  <Gold.PLP.PLP>  (19) 
-24.6743

>  <Gold.PLP.ligand.clash>  (19) 
0.0000

>  <Gold.PLP.ligand.torsion>  (19) 
0.0106

>  <Gold.PLP.part.buried>  (19) 
-5.5148

>  <Gold.PLP.part.hbond>  (19) 
-2.6584

>  <Gold.PLP.part.metal>  (19) 
0.0000

>  <Gold.PLP.part.nonpolar>  (19) 
-17.4144

>  <Gold.PLP.part.repulsive>  (19) 
0.1373

>  <Gold.Protein.RotatedAtoms>  (19) 


>  <Gold.Protein.RotatedTorsions>  (19) 


>  <Gold.Protein.RotatedWaterAtoms>  (19) 


>  <Gold.Version>  (19) 
5.3.0

>  <PLP.Chemscore.CHOScore>  (19) 


>  <PLP.Chemscore.Hbond>  (19) 


>  <PLP.Chemscore.Internal.Correction>  (19) 


>  <PLP.Chemscore.Metal>  (19) 


>  <PLP.Fitness>  (19) 


>  <PLP.PLP>  (19) 


>  <PLP.ligand.clash>  (19) 


>  <PLP.ligand.torsion>  (19) 


>  <PLP.part.buried>  (19) 


>  <PLP.part.hbond>  (19) 


>  <PLP.part.metal>  (19) 


>  <PLP.part.nonpolar>  (19) 


>  <PLP.part.repulsive>  (19) 


>  <Version>  (19) 


$$$$
19|Compound_8|Compounds_3D_F|sdf|4|dock9|1
     RDKit          3D

  8  7  0  0  0  0  0  0  0  0999 V2000
   -9.9821  -14.3558   12.6606 O   0  0  0  0  0  0  0  0  0  0  0  0
   -9.1033  -13.3275   12.2009 C   0  0  0  0  0  0  0  0  0  0  0  0
   -7.6818  -13.8817   12.0923 C   0  0  0  0  0  0  0  0  0  0  0  0
   -7.4275  -14.3054   10.7127 N   0  0  0  0  0  0  0  0  0  0  0  0
   -8.2034  -15.2494   10.1432 C   0  0  0  0  0  0  0  0  0  0  0  0
   -9.1120  -15.7466   10.7732 O   0  0  0  0  0  0  0  0  0  0  0  0
   -7.9303  -15.7033    8.6660 B   0  0  0  0  0  0  0  0  0  0  0  0
   -6.6790  -12.7949   12.4852 C   0  0  0  0  0  0  0  0  0  0  0  0
  1  2  1  0
  2  3  1  0
  3  4  1  0
  3  8  1  0
  4  5  1  0
  5  6  2  0
  5  7  1  0
M  END
>  <Gold.Gold.Protein.RotatedWaterAtoms>  (20) 


>  <Gold.Id.Protein>  (20) 


>  <Gold.PLP.Chemscore.CHOScore>  (20) 
0.0000

>  <Gold.PLP.Chemscore.Hbond>  (20) 
2.0000

>  <Gold.PLP.Chemscore.Internal.Correction>  (20) 
0.0000

>  <Gold.PLP.Chemscore.Metal>  (20) 
0.0000

>  <Gold.PLP.Fitness>  (20) 
29.1886

>  <Gold.PLP.PLP>  (20) 
-24.1670

>  <Gold.PLP.ligand.clash>  (20) 
0.0000

>  <Gold.PLP.ligand.torsion>  (20) 
0.4892

>  <Gold.PLP.part.buried>  (20) 
-5.4388

>  <Gold.PLP.part.hbond>  (20) 
-3.7824

>  <Gold.PLP.part.metal>  (20) 
0.0000

>  <Gold.PLP.part.nonpolar>  (20) 
-15.3884

>  <Gold.PLP.part.repulsive>  (20) 
0.2057

>  <Gold.Protein.RotatedAtoms>  (20) 


>  <Gold.Protein.RotatedTorsions>  (20) 


>  <Gold.Protein.RotatedWaterAtoms>  (20) 


>  <Gold.Version>  (20) 
5.3.0

>  <PLP.Chemscore.CHOScore>  (20) 


>  <PLP.Chemscore.Hbond>  (20) 


>  <PLP.Chemscore.Internal.Correction>  (20) 


>  <PLP.Chemscore.Metal>  (20) 


>  <PLP.Fitness>  (20) 


>  <PLP.PLP>  (20) 


>  <PLP.ligand.clash>  (20) 


>  <PLP.ligand.torsion>  (20) 


>  <PLP.part.buried>  (20) 


>  <PLP.part.hbond>  (20) 


>  <PLP.part.metal>  (20) 


>  <PLP.part.nonpolar>  (20) 


>  <PLP.part.repulsive>  (20) 


>  <Version>  (20) 


$$$$
20|Compound_12|Compounds_3D_F|sdf|5|dock1|1
     RDKit          3D

  6  5  0  0  0  0  0  0  0  0999 V2000
   -5.5779  -12.4625   12.5007 B   0  0  0  0  0  0  0  0  0  0  0  0
   -5.6832  -14.0107   12.2643 C   0  0  0  0  0  0  0  0  0  0  0  0
   -6.7617  -14.5616   12.3226 O   0  0  0  0  0  0  0  0  0  0  0  0
   -4.5737  -14.7282   11.9964 N   0  0  0  0  0  0  0  0  0  0  0  0
   -4.6720  -16.1735   11.7760 C   0  0  0  0  0  0  0  0  0  0  0  0
   -5.3305  -16.8308   12.9907 C   0  0  0  0  0  0  0  0  0  0  0  0
  1  2  1  0
  2  3  2  0
  2  4  1  0
  4  5  1  0
  5  6  1  0
M  END
>  <Gold.Gold.Protein.RotatedWaterAtoms>  (21) 


>  <Gold.Id.Protein>  (21) 


>  <Gold.PLP.Chemscore.CHOScore>  (21) 
0.0000

>  <Gold.PLP.Chemscore.Hbond>  (21) 
1.0000

>  <Gold.PLP.Chemscore.Internal.Correction>  (21) 
0.0000

>  <Gold.PLP.Chemscore.Metal>  (21) 
0.0000

>  <Gold.PLP.Fitness>  (21) 
23.3159

>  <Gold.PLP.PLP>  (21) 
-20.3276

>  <Gold.PLP.ligand.clash>  (21) 
0.0000

>  <Gold.PLP.ligand.torsion>  (21) 
0.0058

>  <Gold.PLP.part.buried>  (21) 
-3.9882

>  <Gold.PLP.part.hbond>  (21) 
-2.0000

>  <Gold.PLP.part.metal>  (21) 
0.0000

>  <Gold.PLP.part.nonpolar>  (21) 
-15.1106

>  <Gold.PLP.part.repulsive>  (21) 
0.2657

>  <Gold.Protein.RotatedAtoms>  (21) 


>  <Gold.Protein.RotatedTorsions>  (21) 


>  <Gold.Protein.RotatedWaterAtoms>  (21) 


>  <Gold.Version>  (21) 
5.3.0

>  <PLP.Chemscore.CHOScore>  (21) 


>  <PLP.Chemscore.Hbond>  (21) 


>  <PLP.Chemscore.Internal.Correction>  (21) 


>  <PLP.Chemscore.Metal>  (21) 


>  <PLP.Fitness>  (21) 


>  <PLP.PLP>  (21) 


>  <PLP.ligand.clash>  (21) 


>  <PLP.ligand.torsion>  (21) 


>  <PLP.part.buried>  (21) 


>  <PLP.part.hbond>  (21) 


>  <PLP.part.metal>  (21) 


>  <PLP.part.nonpolar>  (21) 


>  <PLP.part.repulsive>  (21) 


>  <Version>  (21) 


$$$$
21|Compound_12|Compounds_3D_F|sdf|5|dock2|1
     RDKit          3D

  6  5  0  0  0  0  0  0  0  0999 V2000
   -5.5009  -12.0856   12.4984 B   0  0  0  0  0  0  0  0  0  0  0  0
   -5.8053  -13.6232   12.4142 C   0  0  0  0  0  0  0  0  0  0  0  0
   -6.9463  -14.0221   12.5098 O   0  0  0  0  0  0  0  0  0  0  0  0
   -4.7975  -14.5006   12.2356 N   0  0  0  0  0  0  0  0  0  0  0  0
   -5.0817  -15.9359   12.1572 C   0  0  0  0  0  0  0  0  0  0  0  0
   -3.7654  -16.7147   12.1134 C   0  0  0  0  0  0  0  0  0  0  0  0
  1  2  1  0
  2  3  2  0
  2  4  1  0
  4  5  1  0
  5  6  1  0
M  END
>  <Gold.Gold.Protein.RotatedWaterAtoms>  (22) 


>  <Gold.Id.Protein>  (22) 


>  <Gold.PLP.Chemscore.CHOScore>  (22) 
0.0000

>  <Gold.PLP.Chemscore.Hbond>  (22) 
1.0000

>  <Gold.PLP.Chemscore.Internal.Correction>  (22) 
0.0000

>  <Gold.PLP.Chemscore.Metal>  (22) 
0.0000

>  <Gold.PLP.Fitness>  (22) 
24.3007

>  <Gold.PLP.PLP>  (22) 
-21.3398

>  <Gold.PLP.ligand.clash>  (22) 
0.0000

>  <Gold.PLP.ligand.torsion>  (22) 
0.0195

>  <Gold.PLP.part.buried>  (22) 
-4.3542

>  <Gold.PLP.part.hbond>  (22) 
-2.0000

>  <Gold.PLP.part.metal>  (22) 
0.0000

>  <Gold.PLP.part.nonpolar>  (22) 
-14.9649

>  <Gold.PLP.part.repulsive>  (22) 
0.2440

>  <Gold.Protein.RotatedAtoms>  (22) 


>  <Gold.Protein.RotatedTorsions>  (22) 


>  <Gold.Protein.RotatedWaterAtoms>  (22) 


>  <Gold.Version>  (22) 
5.3.0

>  <PLP.Chemscore.CHOScore>  (22) 


>  <PLP.Chemscore.Hbond>  (22) 


>  <PLP.Chemscore.Internal.Correction>  (22) 


>  <PLP.Chemscore.Metal>  (22) 


>  <PLP.Fitness>  (22) 


>  <PLP.PLP>  (22) 


>  <PLP.ligand.clash>  (22) 


>  <PLP.ligand.torsion>  (22) 


>  <PLP.part.buried>  (22) 


>  <PLP.part.hbond>  (22) 


>  <PLP.part.metal>  (22) 


>  <PLP.part.nonpolar>  (22) 


>  <PLP.part.repulsive>  (22) 


>  <Version>  (22) 


$$$$
22|Compound_12|Compounds_3D_F|sdf|5|dock3|1
     RDKit          3D

  6  5  0  0  0  0  0  0  0  0999 V2000
   -3.8670  -16.9701   11.3622 B   0  0  0  0  0  0  0  0  0  0  0  0
   -4.9042  -16.0750   12.1282 C   0  0  0  0  0  0  0  0  0  0  0  0
   -5.7841  -16.5912   12.7835 O   0  0  0  0  0  0  0  0  0  0  0  0
   -4.8168  -14.7316   12.0571 N   0  0  0  0  0  0  0  0  0  0  0  0
   -5.7853  -13.8961   12.7721 C   0  0  0  0  0  0  0  0  0  0  0  0
   -5.4852  -12.4207   12.4993 C   0  0  0  0  0  0  0  0  0  0  0  0
  1  2  1  0
  2  3  2  0
  2  4  1  0
  4  5  1  0
  5  6  1  0
M  END
>  <Gold.Gold.Protein.RotatedWaterAtoms>  (23) 


>  <Gold.Id.Protein>  (23) 


>  <Gold.PLP.Chemscore.CHOScore>  (23) 
0.0000

>  <Gold.PLP.Chemscore.Hbond>  (23) 
1.0000

>  <Gold.PLP.Chemscore.Internal.Correction>  (23) 
0.0000

>  <Gold.PLP.Chemscore.Metal>  (23) 
0.0000

>  <Gold.PLP.Fitness>  (23) 
24.2463

>  <Gold.PLP.PLP>  (23) 
-21.2482

>  <Gold.PLP.ligand.clash>  (23) 
0.0000

>  <Gold.PLP.ligand.torsion>  (23) 
0.0010

>  <Gold.PLP.part.buried>  (23) 
-4.3678

>  <Gold.PLP.part.hbond>  (23) 
-2.0000

>  <Gold.PLP.part.metal>  (23) 
0.0000

>  <Gold.PLP.part.nonpolar>  (23) 
-14.9922

>  <Gold.PLP.part.repulsive>  (23) 
0.1574

>  <Gold.Protein.RotatedAtoms>  (23) 


>  <Gold.Protein.RotatedTorsions>  (23) 


>  <Gold.Protein.RotatedWaterAtoms>  (23) 


>  <Gold.Version>  (23) 
5.3.0

>  <PLP.Chemscore.CHOScore>  (23) 


>  <PLP.Chemscore.Hbond>  (23) 


>  <PLP.Chemscore.Internal.Correction>  (23) 


>  <PLP.Chemscore.Metal>  (23) 


>  <PLP.Fitness>  (23) 


>  <PLP.PLP>  (23) 


>  <PLP.ligand.clash>  (23) 


>  <PLP.ligand.torsion>  (23) 


>  <PLP.part.buried>  (23) 


>  <PLP.part.hbond>  (23) 


>  <PLP.part.metal>  (23) 


>  <PLP.part.nonpolar>  (23) 


>  <PLP.part.repulsive>  (23) 


>  <Version>  (23) 


$$$$
23|Compound_12|Compounds_3D_F|sdf|5|dock4|1
     RDKit          3D

  6  5  0  0  0  0  0  0  0  0999 V2000
   -4.2917  -16.9878   11.5935 B   0  0  0  0  0  0  0  0  0  0  0  0
   -5.1999  -15.8545   12.1890 C   0  0  0  0  0  0  0  0  0  0  0  0
   -6.1935  -16.1425   12.8214 O   0  0  0  0  0  0  0  0  0  0  0  0
   -4.8750  -14.5602   11.9969 N   0  0  0  0  0  0  0  0  0  0  0  0
   -5.7231  -13.5024   12.5527 C   0  0  0  0  0  0  0  0  0  0  0  0
   -7.1049  -13.5602   11.8982 C   0  0  0  0  0  0  0  0  0  0  0  0
  1  2  1  0
  2  3  2  0
  2  4  1  0
  4  5  1  0
  5  6  1  0
M  END
>  <Gold.Gold.Protein.RotatedWaterAtoms>  (24) 


>  <Gold.Id.Protein>  (24) 


>  <Gold.PLP.Chemscore.CHOScore>  (24) 
0.0000

>  <Gold.PLP.Chemscore.Hbond>  (24) 
1.0000

>  <Gold.PLP.Chemscore.Internal.Correction>  (24) 
0.0000

>  <Gold.PLP.Chemscore.Metal>  (24) 
0.0000

>  <Gold.PLP.Fitness>  (24) 
23.4696

>  <Gold.PLP.PLP>  (24) 
-20.4852

>  <Gold.PLP.ligand.clash>  (24) 
0.0000

>  <Gold.PLP.ligand.torsion>  (24) 
0.0078

>  <Gold.PLP.part.buried>  (24) 
-4.2976

>  <Gold.PLP.part.hbond>  (24) 
-1.9635

>  <Gold.PLP.part.metal>  (24) 
0.0000

>  <Gold.PLP.part.nonpolar>  (24) 
-14.0670

>  <Gold.PLP.part.repulsive>  (24) 
0.1801

>  <Gold.Protein.RotatedAtoms>  (24) 


>  <Gold.Protein.RotatedTorsions>  (24) 


>  <Gold.Protein.RotatedWaterAtoms>  (24) 


>  <Gold.Version>  (24) 
5.3.0

>  <PLP.Chemscore.CHOScore>  (24) 


>  <PLP.Chemscore.Hbond>  (24) 


>  <PLP.Chemscore.Internal.Correction>  (24) 


>  <PLP.Chemscore.Metal>  (24) 


>  <PLP.Fitness>  (24) 


>  <PLP.PLP>  (24) 


>  <PLP.ligand.clash>  (24) 


>  <PLP.ligand.torsion>  (24) 


>  <PLP.part.buried>  (24) 


>  <PLP.part.hbond>  (24) 


>  <PLP.part.metal>  (24) 


>  <PLP.part.nonpolar>  (24) 


>  <PLP.part.repulsive>  (24) 


>  <Version>  (24) 


$$$$
24|Compound_12|Compounds_3D_F|sdf|5|dock5|1
     RDKit          3D

  6  5  0  0  0  0  0  0  0  0999 V2000
   -3.9335  -16.8156   11.3967 B   0  0  0  0  0  0  0  0  0  0  0  0
   -4.9568  -15.8976   12.1543 C   0  0  0  0  0  0  0  0  0  0  0  0
   -5.8452  -16.3942   12.8134 O   0  0  0  0  0  0  0  0  0  0  0  0
   -4.8479  -14.5564   12.0720 N   0  0  0  0  0  0  0  0  0  0  0  0
   -5.8034  -13.6996   12.7790 C   0  0  0  0  0  0  0  0  0  0  0  0
   -5.4752  -12.2314   12.4998 C   0  0  0  0  0  0  0  0  0  0  0  0
  1  2  1  0
  2  3  2  0
  2  4  1  0
  4  5  1  0
  5  6  1  0
M  END
>  <Gold.Gold.Protein.RotatedWaterAtoms>  (25) 


>  <Gold.Id.Protein>  (25) 


>  <Gold.PLP.Chemscore.CHOScore>  (25) 
0.0000

>  <Gold.PLP.Chemscore.Hbond>  (25) 
1.0000

>  <Gold.PLP.Chemscore.Internal.Correction>  (25) 
0.0000

>  <Gold.PLP.Chemscore.Metal>  (25) 
0.0000

>  <Gold.PLP.Fitness>  (25) 
24.5897

>  <Gold.PLP.PLP>  (25) 
-21.5909

>  <Gold.PLP.ligand.clash>  (25) 
0.0000

>  <Gold.PLP.ligand.torsion>  (25) 
0.0006

>  <Gold.PLP.part.buried>  (25) 
-4.3427

>  <Gold.PLP.part.hbond>  (25) 
-2.0000

>  <Gold.PLP.part.metal>  (25) 
0.0000

>  <Gold.PLP.part.nonpolar>  (25) 
-15.1266

>  <Gold.PLP.part.repulsive>  (25) 
0.1752

>  <Gold.Protein.RotatedAtoms>  (25) 


>  <Gold.Protein.RotatedTorsions>  (25) 


>  <Gold.Protein.RotatedWaterAtoms>  (25) 


>  <Gold.Version>  (25) 
5.3.0

>  <PLP.Chemscore.CHOScore>  (25) 


>  <PLP.Chemscore.Hbond>  (25) 


>  <PLP.Chemscore.Internal.Correction>  (25) 


>  <PLP.Chemscore.Metal>  (25) 


>  <PLP.Fitness>  (25) 


>  <PLP.PLP>  (25) 


>  <PLP.ligand.clash>  (25) 


>  <PLP.ligand.torsion>  (25) 


>  <PLP.part.buried>  (25) 


>  <PLP.part.hbond>  (25) 


>  <PLP.part.metal>  (25) 


>  <PLP.part.nonpolar>  (25) 


>  <PLP.part.repulsive>  (25) 


>  <Version>  (25) 


$$$$
25|Compound_12|Compounds_3D_F|sdf|5|dock6|1
     RDKit          3D

  6  5  0  0  0  0  0  0  0  0999 V2000
   -4.0456  -16.8938   11.5277 B   0  0  0  0  0  0  0  0  0  0  0  0
   -5.0471  -15.9035   12.2206 C   0  0  0  0  0  0  0  0  0  0  0  0
   -5.9554  -16.3343   12.8985 O   0  0  0  0  0  0  0  0  0  0  0  0
   -4.8973  -14.5732   12.0616 N   0  0  0  0  0  0  0  0  0  0  0  0
   -5.8324  -13.6487   12.7082 C   0  0  0  0  0  0  0  0  0  0  0  0
   -5.3538  -12.2105   12.4994 C   0  0  0  0  0  0  0  0  0  0  0  0
  1  2  1  0
  2  3  2  0
  2  4  1  0
  4  5  1  0
  5  6  1  0
M  END
>  <Gold.Gold.Protein.RotatedWaterAtoms>  (26) 


>  <Gold.Id.Protein>  (26) 


>  <Gold.PLP.Chemscore.CHOScore>  (26) 
0.0000

>  <Gold.PLP.Chemscore.Hbond>  (26) 
1.0000

>  <Gold.PLP.Chemscore.Internal.Correction>  (26) 
0.0000

>  <Gold.PLP.Chemscore.Metal>  (26) 
0.0000

>  <Gold.PLP.Fitness>  (26) 
24.3623

>  <Gold.PLP.PLP>  (26) 
-21.4019

>  <Gold.PLP.ligand.clash>  (26) 
0.0000

>  <Gold.PLP.ligand.torsion>  (26) 
0.0198

>  <Gold.PLP.part.buried>  (26) 
-4.3944

>  <Gold.PLP.part.hbond>  (26) 
-1.9310

>  <Gold.PLP.part.metal>  (26) 
0.0000

>  <Gold.PLP.part.nonpolar>  (26) 
-15.0372

>  <Gold.PLP.part.repulsive>  (26) 
0.1684

>  <Gold.Protein.RotatedAtoms>  (26) 


>  <Gold.Protein.RotatedTorsions>  (26) 


>  <Gold.Protein.RotatedWaterAtoms>  (26) 


>  <Gold.Version>  (26) 
5.3.0

>  <PLP.Chemscore.CHOScore>  (26) 


>  <PLP.Chemscore.Hbond>  (26) 


>  <PLP.Chemscore.Internal.Correction>  (26) 


>  <PLP.Chemscore.Metal>  (26) 


>  <PLP.Fitness>  (26) 


>  <PLP.PLP>  (26) 


>  <PLP.ligand.clash>  (26) 


>  <PLP.ligand.torsion>  (26) 


>  <PLP.part.buried>  (26) 


>  <PLP.part.hbond>  (26) 


>  <PLP.part.metal>  (26) 


>  <PLP.part.nonpolar>  (26) 


>  <PLP.part.repulsive>  (26) 


>  <Version>  (26) 


$$$$
26|Compound_12|Compounds_3D_F|sdf|5|dock7|1
     RDKit          3D

  6  5  0  0  0  0  0  0  0  0999 V2000
   -4.0036  -17.0634   12.0207 B   0  0  0  0  0  0  0  0  0  0  0  0
   -5.1421  -16.0360   12.3554 C   0  0  0  0  0  0  0  0  0  0  0  0
   -6.0963  -16.3822   13.0186 O   0  0  0  0  0  0  0  0  0  0  0  0
   -5.0590  -14.7681   11.9050 N   0  0  0  0  0  0  0  0  0  0  0  0
   -6.1221  -13.8091   12.2173 C   0  0  0  0  0  0  0  0  0  0  0  0
   -5.5046  -12.4386   12.5029 C   0  0  0  0  0  0  0  0  0  0  0  0
  1  2  1  0
  2  3  2  0
  2  4  1  0
  4  5  1  0
  5  6  1  0
M  END
>  <Gold.Gold.Protein.RotatedWaterAtoms>  (27) 


>  <Gold.Id.Protein>  (27) 


>  <Gold.PLP.Chemscore.CHOScore>  (27) 
0.0000

>  <Gold.PLP.Chemscore.Hbond>  (27) 
1.0000

>  <Gold.PLP.Chemscore.Internal.Correction>  (27) 
0.0000

>  <Gold.PLP.Chemscore.Metal>  (27) 
0.0000

>  <Gold.PLP.Fitness>  (27) 
23.7481

>  <Gold.PLP.PLP>  (27) 
-21.0517

>  <Gold.PLP.ligand.clash>  (27) 
0.0000

>  <Gold.PLP.ligand.torsion>  (27) 
0.1518

>  <Gold.PLP.part.buried>  (27) 
-4.2984

>  <Gold.PLP.part.hbond>  (27) 
-1.6113

>  <Gold.PLP.part.metal>  (27) 
0.0000

>  <Gold.PLP.part.nonpolar>  (27) 
-14.9281

>  <Gold.PLP.part.repulsive>  (27) 
0.1435

>  <Gold.Protein.RotatedAtoms>  (27) 


>  <Gold.Protein.RotatedTorsions>  (27) 


>  <Gold.Protein.RotatedWaterAtoms>  (27) 


>  <Gold.Version>  (27) 
5.3.0

>  <PLP.Chemscore.CHOScore>  (27) 


>  <PLP.Chemscore.Hbond>  (27) 


>  <PLP.Chemscore.Internal.Correction>  (27) 


>  <PLP.Chemscore.Metal>  (27) 


>  <PLP.Fitness>  (27) 


>  <PLP.PLP>  (27) 


>  <PLP.ligand.clash>  (27) 


>  <PLP.ligand.torsion>  (27) 


>  <PLP.part.buried>  (27) 


>  <PLP.part.hbond>  (27) 


>  <PLP.part.metal>  (27) 


>  <PLP.part.nonpolar>  (27) 


>  <PLP.part.repulsive>  (27) 


>  <Version>  (27) 


$$$$
27|Compound_12|Compounds_3D_F|sdf|5|dock8|1
     RDKit          3D

  6  5  0  0  0  0  0  0  0  0999 V2000
   -3.8628  -16.6363   11.9723 B   0  0  0  0  0  0  0  0  0  0  0  0
   -5.0755  -15.6656   12.1980 C   0  0  0  0  0  0  0  0  0  0  0  0
   -6.1939  -16.1134   12.3350 O   0  0  0  0  0  0  0  0  0  0  0  0
   -4.8734  -14.3334   12.2393 N   0  0  0  0  0  0  0  0  0  0  0  0
   -6.0056  -13.4273   12.4497 C   0  0  0  0  0  0  0  0  0  0  0  0
   -5.5009  -11.9837   12.4999 C   0  0  0  0  0  0  0  0  0  0  0  0
  1  2  1  0
  2  3  2  0
  2  4  1  0
  4  5  1  0
  5  6  1  0
M  END
>  <Gold.Gold.Protein.RotatedWaterAtoms>  (28) 


>  <Gold.Id.Protein>  (28) 


>  <Gold.PLP.Chemscore.CHOScore>  (28) 
0.0000

>  <Gold.PLP.Chemscore.Hbond>  (28) 
1.0000

>  <Gold.PLP.Chemscore.Internal.Correction>  (28) 
0.0000

>  <Gold.PLP.Chemscore.Metal>  (28) 
0.0000

>  <Gold.PLP.Fitness>  (28) 
24.3541

>  <Gold.PLP.PLP>  (28) 
-21.3579

>  <Gold.PLP.ligand.clash>  (28) 
0.0000

>  <Gold.PLP.ligand.torsion>  (28) 
0.0019

>  <Gold.PLP.part.buried>  (28) 
-4.2644

>  <Gold.PLP.part.hbond>  (28) 
-2.0000

>  <Gold.PLP.part.metal>  (28) 
0.0000

>  <Gold.PLP.part.nonpolar>  (28) 
-14.9949

>  <Gold.PLP.part.repulsive>  (28) 
0.1748

>  <Gold.Protein.RotatedAtoms>  (28) 


>  <Gold.Protein.RotatedTorsions>  (28) 


>  <Gold.Protein.RotatedWaterAtoms>  (28) 


>  <Gold.Version>  (28) 
5.3.0

>  <PLP.Chemscore.CHOScore>  (28) 


>  <PLP.Chemscore.Hbond>  (28) 


>  <PLP.Chemscore.Internal.Correction>  (28) 


>  <PLP.Chemscore.Metal>  (28) 


>  <PLP.Fitness>  (28) 


>  <PLP.PLP>  (28) 


>  <PLP.ligand.clash>  (28) 


>  <PLP.ligand.torsion>  (28) 


>  <PLP.part.buried>  (28) 


>  <PLP.part.hbond>  (28) 


>  <PLP.part.metal>  (28) 


>  <PLP.part.nonpolar>  (28) 


>  <PLP.part.repulsive>  (28) 


>  <Version>  (28) 


$$$$
28|Compound_19|Compounds_3D_F|sdf|6|dock1|1
     RDKit          3D

 12 11  0  0  0  0  0  0  0  0999 V2000
   -9.1417  -15.0341    9.8041 O   0  0  0  0  0  0  0  0  0  0  0  0
   -8.5084  -14.8727   10.9756 C   0  0  0  0  0  0  0  0  0  0  0  0
   -8.0445  -13.7958   11.2695 O   0  0  0  0  0  0  0  0  0  0  0  0
   -8.3742  -16.0346   11.9263 C   0  0  0  0  0  0  0  0  0  0  0  0
   -8.8533  -17.2569   11.2759 N   0  0  0  0  0  0  0  0  0  0  0  0
  -10.0709  -17.7487   11.5775 C   0  0  0  0  0  0  0  0  0  0  0  0
  -10.7707  -17.1786   12.3879 O   0  0  0  0  0  0  0  0  0  0  0  0
  -10.5635  -19.0057   10.9081 C   0  0  0  0  0  0  0  0  0  0  0  0
  -11.5614  -18.6597    9.8926 N   0  0  0  0  0  0  0  0  0  0  0  0
  -12.8336  -19.0825   10.0265 C   0  0  0  0  0  0  0  0  0  0  0  0
  -13.1534  -19.7494   10.9873 O   0  0  0  0  0  0  0  0  0  0  0  0
  -13.9028  -18.7121    8.9379 B   0  0  0  0  0  0  0  0  0  0  0  0
  1  2  1  0
  2  3  2  0
  2  4  1  0
  4  5  1  0
  5  6  1  0
  6  7  2  0
  6  8  1  0
  8  9  1  0
  9 10  1  0
 10 11  2  0
 10 12  1  0
M  END
>  <Gold.Gold.Protein.RotatedWaterAtoms>  (29) 


>  <Gold.Id.Protein>  (29) 


>  <Gold.PLP.Chemscore.CHOScore>  (29) 
0.0000

>  <Gold.PLP.Chemscore.Hbond>  (29) 
2.9760

>  <Gold.PLP.Chemscore.Internal.Correction>  (29) 
0.0064

>  <Gold.PLP.Chemscore.Metal>  (29) 
0.0000

>  <Gold.PLP.Fitness>  (29) 
32.3738

>  <Gold.PLP.PLP>  (29) 
-24.1831

>  <Gold.PLP.ligand.clash>  (29) 
0.0000

>  <Gold.PLP.ligand.torsion>  (29) 
0.3718

>  <Gold.PLP.part.buried>  (29) 
-4.6751

>  <Gold.PLP.part.hbond>  (29) 
-4.0000

>  <Gold.PLP.part.metal>  (29) 
0.0000

>  <Gold.PLP.part.nonpolar>  (29) 
-16.0251

>  <Gold.PLP.part.repulsive>  (29) 
0.3648

>  <Gold.Protein.RotatedAtoms>  (29) 


>  <Gold.Protein.RotatedTorsions>  (29) 


>  <Gold.Protein.RotatedWaterAtoms>  (29) 


>  <Gold.Version>  (29) 
5.3.0

>  <PLP.Chemscore.CHOScore>  (29) 


>  <PLP.Chemscore.Hbond>  (29) 


>  <PLP.Chemscore.Internal.Correction>  (29) 


>  <PLP.Chemscore.Metal>  (29) 


>  <PLP.Fitness>  (29) 


>  <PLP.PLP>  (29) 


>  <PLP.ligand.clash>  (29) 


>  <PLP.ligand.torsion>  (29) 


>  <PLP.part.buried>  (29) 


>  <PLP.part.hbond>  (29) 


>  <PLP.part.metal>  (29) 


>  <PLP.part.nonpolar>  (29) 


>  <PLP.part.repulsive>  (29) 


>  <Version>  (29) 


$$$$
29|Compound_19|Compounds_3D_F|sdf|6|dock2|1
     RDKit          3D

 12 11  0  0  0  0  0  0  0  0999 V2000
   -4.5704  -12.5446   13.3339 O   0  0  0  0  0  0  0  0  0  0  0  0
   -5.5988  -12.7492   12.4971 C   0  0  0  0  0  0  0  0  0  0  0  0
   -6.0861  -11.8190   11.8982 O   0  0  0  0  0  0  0  0  0  0  0  0
   -6.1480  -14.1393   12.3036 C   0  0  0  0  0  0  0  0  0  0  0  0
   -5.1132  -14.9978   11.7216 N   0  0  0  0  0  0  0  0  0  0  0  0
   -4.9773  -16.2706   12.1423 C   0  0  0  0  0  0  0  0  0  0  0  0
   -5.7127  -16.7056   13.0032 O   0  0  0  0  0  0  0  0  0  0  0  0
   -3.9130  -17.1533   11.5432 C   0  0  0  0  0  0  0  0  0  0  0  0
   -3.4480  -16.5708   10.2819 N   0  0  0  0  0  0  0  0  0  0  0  0
   -2.7388  -17.3195    9.4149 C   0  0  0  0  0  0  0  0  0  0  0  0
   -2.4851  -18.4756    9.6780 O   0  0  0  0  0  0  0  0  0  0  0  0
   -2.2400  -16.6950    8.0633 B   0  0  0  0  0  0  0  0  0  0  0  0
  1  2  1  0
  2  3  2  0
  2  4  1  0
  4  5  1  0
  5  6  1  0
  6  7  2  0
  6  8  1  0
  8  9  1  0
  9 10  1  0
 10 11  2  0
 10 12  1  0
M  END
>  <Gold.Gold.Protein.RotatedWaterAtoms>  (30) 


>  <Gold.Id.Protein>  (30) 


>  <Gold.PLP.Chemscore.CHOScore>  (30) 
0.0000

>  <Gold.PLP.Chemscore.Hbond>  (30) 
2.9600

>  <Gold.PLP.Chemscore.Internal.Correction>  (30) 
0.0064

>  <Gold.PLP.Chemscore.Metal>  (30) 
0.0000

>  <Gold.PLP.Fitness>  (30) 
37.8655

>  <Gold.PLP.PLP>  (30) 
-29.9444

>  <Gold.PLP.ligand.clash>  (30) 
0.0000

>  <Gold.PLP.ligand.torsion>  (30) 
0.4827

>  <Gold.PLP.part.buried>  (30) 
-6.3361

>  <Gold.PLP.part.hbond>  (30) 
-5.6677

>  <Gold.PLP.part.metal>  (30) 
0.0000

>  <Gold.PLP.part.nonpolar>  (30) 
-18.0334

>  <Gold.PLP.part.repulsive>  (30) 
0.5441

>  <Gold.Protein.RotatedAtoms>  (30) 


>  <Gold.Protein.RotatedTorsions>  (30) 


>  <Gold.Protein.RotatedWaterAtoms>  (30) 


>  <Gold.Version>  (30) 
5.3.0

>  <PLP.Chemscore.CHOScore>  (30) 


>  <PLP.Chemscore.Hbond>  (30) 


>  <PLP.Chemscore.Internal.Correction>  (30) 


>  <PLP.Chemscore.Metal>  (30) 


>  <PLP.Fitness>  (30) 


>  <PLP.PLP>  (30) 


>  <PLP.ligand.clash>  (30) 


>  <PLP.ligand.torsion>  (30) 


>  <PLP.part.buried>  (30) 


>  <PLP.part.hbond>  (30) 


>  <PLP.part.metal>  (30) 


>  <PLP.part.nonpolar>  (30) 


>  <PLP.part.repulsive>  (30) 


>  <Version>  (30) 


$$$$
30|Compound_19|Compounds_3D_F|sdf|6|dock3|1
     RDKit          3D

 12 11  0  0  0  0  0  0  0  0999 V2000
   -9.8446  -14.2821   12.6812 O   0  0  0  0  0  0  0  0  0  0  0  0
   -8.7803  -14.5578   11.9125 C   0  0  0  0  0  0  0  0  0  0  0  0
   -8.4548  -13.7946   11.0332 O   0  0  0  0  0  0  0  0  0  0  0  0
   -7.9897  -15.8199   12.1441 C   0  0  0  0  0  0  0  0  0  0  0  0
   -8.5626  -16.9090   11.3489 N   0  0  0  0  0  0  0  0  0  0  0  0
   -9.8046  -17.3582   11.6158 C   0  0  0  0  0  0  0  0  0  0  0  0
  -10.4485  -16.8600   12.5150 O   0  0  0  0  0  0  0  0  0  0  0  0
  -10.3935  -18.4781   10.7976 C   0  0  0  0  0  0  0  0  0  0  0  0
  -11.6733  -18.0472   10.2291 N   0  0  0  0  0  0  0  0  0  0  0  0
  -12.4236  -18.9157    9.5233 C   0  0  0  0  0  0  0  0  0  0  0  0
  -12.0402  -20.0541    9.3583 O   0  0  0  0  0  0  0  0  0  0  0  0
  -13.7949  -18.4537    8.9137 B   0  0  0  0  0  0  0  0  0  0  0  0
  1  2  1  0
  2  3  2  0
  2  4  1  0
  4  5  1  0
  5  6  1  0
  6  7  2  0
  6  8  1  0
  8  9  1  0
  9 10  1  0
 10 11  2  0
 10 12  1  0
M  END
>  <Gold.Gold.Protein.RotatedWaterAtoms>  (31) 


>  <Gold.Id.Protein>  (31) 


>  <Gold.PLP.Chemscore.CHOScore>  (31) 
0.0000

>  <Gold.PLP.Chemscore.Hbond>  (31) 
3.2743

>  <Gold.PLP.Chemscore.Internal.Correction>  (31) 
0.0064

>  <Gold.PLP.Chemscore.Metal>  (31) 
0.0000

>  <Gold.PLP.Fitness>  (31) 
34.0240

>  <Gold.PLP.PLP>  (31) 
-25.0299

>  <Gold.PLP.ligand.clash>  (31) 
0.0000

>  <Gold.PLP.ligand.torsion>  (31) 
0.4175

>  <Gold.PLP.part.buried>  (31) 
-3.5512

>  <Gold.PLP.part.hbond>  (31) 
-5.3552

>  <Gold.PLP.part.metal>  (31) 
0.0000

>  <Gold.PLP.part.nonpolar>  (31) 
-16.7508

>  <Gold.PLP.part.repulsive>  (31) 
0.3064

>  <Gold.Protein.RotatedAtoms>  (31) 


>  <Gold.Protein.RotatedTorsions>  (31) 


>  <Gold.Protein.RotatedWaterAtoms>  (31) 


>  <Gold.Version>  (31) 
5.3.0

>  <PLP.Chemscore.CHOScore>  (31) 


>  <PLP.Chemscore.Hbond>  (31) 


>  <PLP.Chemscore.Internal.Correction>  (31) 


>  <PLP.Chemscore.Metal>  (31) 


>  <PLP.Fitness>  (31) 


>  <PLP.PLP>  (31) 


>  <PLP.ligand.clash>  (31) 


>  <PLP.ligand.torsion>  (31) 


>  <PLP.part.buried>  (31) 


>  <PLP.part.hbond>  (31) 


>  <PLP.part.metal>  (31) 


>  <PLP.part.nonpolar>  (31) 


>  <PLP.part.repulsive>  (31) 


>  <Version>  (31) 


$$$$
31|Compound_19|Compounds_3D_F|sdf|6|dock4|1
     RDKit          3D

 12 11  0  0  0  0  0  0  0  0999 V2000
   -4.4455  -12.1986   13.1461 O   0  0  0  0  0  0  0  0  0  0  0  0
   -5.6119  -12.3721   12.5066 C   0  0  0  0  0  0  0  0  0  0  0  0
   -6.2813  -11.4139   12.1981 O   0  0  0  0  0  0  0  0  0  0  0  0
   -6.0890  -13.7622   12.1728 C   0  0  0  0  0  0  0  0  0  0  0  0
   -4.9541  -14.5760   11.7298 N   0  0  0  0  0  0  0  0  0  0  0  0
   -4.8750  -15.8734   12.0845 C   0  0  0  0  0  0  0  0  0  0  0  0
   -5.7445  -16.3677   12.7708 O   0  0  0  0  0  0  0  0  0  0  0  0
   -3.7077  -16.7101   11.6284 C   0  0  0  0  0  0  0  0  0  0  0  0
   -3.7694  -16.8841   10.1750 N   0  0  0  0  0  0  0  0  0  0  0  0
   -2.6811  -17.3019    9.4995 C   0  0  0  0  0  0  0  0  0  0  0  0
   -1.6501  -17.5339   10.0940 O   0  0  0  0  0  0  0  0  0  0  0  0
   -2.7472  -17.4879    7.9417 B   0  0  0  0  0  0  0  0  0  0  0  0
  1  2  1  0
  2  3  2  0
  2  4  1  0
  4  5  1  0
  5  6  1  0
  6  7  2  0
  6  8  1  0
  8  9  1  0
  9 10  1  0
 10 11  2  0
 10 12  1  0
M  END
>  <Gold.Gold.Protein.RotatedWaterAtoms>  (32) 


>  <Gold.Id.Protein>  (32) 


>  <Gold.PLP.Chemscore.CHOScore>  (32) 
0.0000

>  <Gold.PLP.Chemscore.Hbond>  (32) 
3.0000

>  <Gold.PLP.Chemscore.Internal.Correction>  (32) 
0.0064

>  <Gold.PLP.Chemscore.Metal>  (32) 
0.0000

>  <Gold.PLP.Fitness>  (32) 
38.6575

>  <Gold.PLP.PLP>  (32) 
-30.8508

>  <Gold.PLP.ligand.clash>  (32) 
0.0000

>  <Gold.PLP.ligand.torsion>  (32) 
0.5998

>  <Gold.PLP.part.buried>  (32) 
-7.9745

>  <Gold.PLP.part.hbond>  (32) 
-6.3659

>  <Gold.PLP.part.metal>  (32) 
0.0000

>  <Gold.PLP.part.nonpolar>  (32) 
-16.8827

>  <Gold.PLP.part.repulsive>  (32) 
0.6022

>  <Gold.Protein.RotatedAtoms>  (32) 


>  <Gold.Protein.RotatedTorsions>  (32) 


>  <Gold.Protein.RotatedWaterAtoms>  (32) 


>  <Gold.Version>  (32) 
5.3.0

>  <PLP.Chemscore.CHOScore>  (32) 


>  <PLP.Chemscore.Hbond>  (32) 


>  <PLP.Chemscore.Internal.Correction>  (32) 


>  <PLP.Chemscore.Metal>  (32) 


>  <PLP.Fitness>  (32) 


>  <PLP.PLP>  (32) 


>  <PLP.ligand.clash>  (32) 


>  <PLP.ligand.torsion>  (32) 


>  <PLP.part.buried>  (32) 


>  <PLP.part.hbond>  (32) 


>  <PLP.part.metal>  (32) 


>  <PLP.part.nonpolar>  (32) 


>  <PLP.part.repulsive>  (32) 


>  <Version>  (32) 


$$$$
32|Compound_19|Compounds_3D_F|sdf|6|dock5|1
     RDKit          3D

 12 11  0  0  0  0  0  0  0  0999 V2000
   -4.5999  -12.3154   13.3143 O   0  0  0  0  0  0  0  0  0  0  0  0
   -5.6154  -12.6427   12.5011 C   0  0  0  0  0  0  0  0  0  0  0  0
   -6.3942  -11.7942   12.1337 O   0  0  0  0  0  0  0  0  0  0  0  0
   -5.7865  -14.0690   12.0453 C   0  0  0  0  0  0  0  0  0  0  0  0
   -7.1812  -14.4779   12.2302 N   0  0  0  0  0  0  0  0  0  0  0  0
   -7.5679  -15.7258   11.9003 C   0  0  0  0  0  0  0  0  0  0  0  0
   -6.7602  -16.5109   11.4503 O   0  0  0  0  0  0  0  0  0  0  0  0
   -9.0023  -16.1460   12.0909 C   0  0  0  0  0  0  0  0  0  0  0  0
   -9.1808  -17.5134   11.5959 N   0  0  0  0  0  0  0  0  0  0  0  0
  -10.3657  -18.1362   11.7492 C   0  0  0  0  0  0  0  0  0  0  0  0
  -11.2848  -17.5655   12.2967 O   0  0  0  0  0  0  0  0  0  0  0  0
  -10.5568  -19.6018   11.2191 B   0  0  0  0  0  0  0  0  0  0  0  0
  1  2  1  0
  2  3  2  0
  2  4  1  0
  4  5  1  0
  5  6  1  0
  6  7  2  0
  6  8  1  0
  8  9  1  0
  9 10  1  0
 10 11  2  0
 10 12  1  0
M  END
>  <Gold.Gold.Protein.RotatedWaterAtoms>  (33) 


>  <Gold.Id.Protein>  (33) 


>  <Gold.PLP.Chemscore.CHOScore>  (33) 
0.0000

>  <Gold.PLP.Chemscore.Hbond>  (33) 
2.9920

>  <Gold.PLP.Chemscore.Internal.Correction>  (33) 
0.0064

>  <Gold.PLP.Chemscore.Metal>  (33) 
0.0000

>  <Gold.PLP.Fitness>  (33) 
37.3338

>  <Gold.PLP.PLP>  (33) 
-28.6521

>  <Gold.PLP.ligand.clash>  (33) 
0.0000

>  <Gold.PLP.ligand.torsion>  (33) 
0.1503

>  <Gold.PLP.part.buried>  (33) 
-7.0059

>  <Gold.PLP.part.hbond>  (33) 
-5.0000

>  <Gold.PLP.part.metal>  (33) 
0.0000

>  <Gold.PLP.part.nonpolar>  (33) 
-17.4257

>  <Gold.PLP.part.repulsive>  (33) 
0.4841

>  <Gold.Protein.RotatedAtoms>  (33) 


>  <Gold.Protein.RotatedTorsions>  (33) 


>  <Gold.Protein.RotatedWaterAtoms>  (33) 


>  <Gold.Version>  (33) 
5.3.0

>  <PLP.Chemscore.CHOScore>  (33) 


>  <PLP.Chemscore.Hbond>  (33) 


>  <PLP.Chemscore.Internal.Correction>  (33) 


>  <PLP.Chemscore.Metal>  (33) 


>  <PLP.Fitness>  (33) 


>  <PLP.PLP>  (33) 


>  <PLP.ligand.clash>  (33) 


>  <PLP.ligand.torsion>  (33) 


>  <PLP.part.buried>  (33) 


>  <PLP.part.hbond>  (33) 


>  <PLP.part.metal>  (33) 


>  <PLP.part.nonpolar>  (33) 


>  <PLP.part.repulsive>  (33) 


>  <Version>  (33) 


$$$$
33|Compound_19|Compounds_3D_F|sdf|6|dock6|1
     RDKit          3D

 12 11  0  0  0  0  0  0  0  0999 V2000
  -16.7027  -22.5925    7.3765 O   0  0  0  0  0  0  0  0  0  0  0  0
  -15.3739  -22.7168    7.5127 C   0  0  0  0  0  0  0  0  0  0  0  0
  -14.8627  -23.8120    7.4873 O   0  0  0  0  0  0  0  0  0  0  0  0
  -14.5173  -21.4907    7.6985 C   0  0  0  0  0  0  0  0  0  0  0  0
  -14.5901  -21.0496    9.0937 N   0  0  0  0  0  0  0  0  0  0  0  0
  -14.1194  -19.8365    9.4432 C   0  0  0  0  0  0  0  0  0  0  0  0
  -13.6352  -19.1093    8.6016 O   0  0  0  0  0  0  0  0  0  0  0  0
  -14.1947  -19.3830   10.8782 C   0  0  0  0  0  0  0  0  0  0  0  0
  -13.3759  -20.2656   11.7132 N   0  0  0  0  0  0  0  0  0  0  0  0
  -12.4041  -19.7479   12.4898 C   0  0  0  0  0  0  0  0  0  0  0  0
  -12.2068  -18.5516   12.4980 O   0  0  0  0  0  0  0  0  0  0  0  0
  -11.5263  -20.6939   13.3843 B   0  0  0  0  0  0  0  0  0  0  0  0
  1  2  1  0
  2  3  2  0
  2  4  1  0
  4  5  1  0
  5  6  1  0
  6  7  2  0
  6  8  1  0
  8  9  1  0
  9 10  1  0
 10 11  2  0
 10 12  1  0
M  END
>  <Gold.Gold.Protein.RotatedWaterAtoms>  (34) 


>  <Gold.Id.Protein>  (34) 


>  <Gold.PLP.Chemscore.CHOScore>  (34) 
0.0000

>  <Gold.PLP.Chemscore.Hbond>  (34) 
3.0000

>  <Gold.PLP.Chemscore.Internal.Correction>  (34) 
0.0064

>  <Gold.PLP.Chemscore.Metal>  (34) 
0.0000

>  <Gold.PLP.Fitness>  (34) 
36.6057

>  <Gold.PLP.PLP>  (34) 
-28.3342

>  <Gold.PLP.ligand.clash>  (34) 
0.0000

>  <Gold.PLP.ligand.torsion>  (34) 
0.3674

>  <Gold.PLP.part.buried>  (34) 
-5.0584

>  <Gold.PLP.part.hbond>  (34) 
-4.8159

>  <Gold.PLP.part.metal>  (34) 
0.0000

>  <Gold.PLP.part.nonpolar>  (34) 
-19.3555

>  <Gold.PLP.part.repulsive>  (34) 
0.2507

>  <Gold.Protein.RotatedAtoms>  (34) 


>  <Gold.Protein.RotatedTorsions>  (34) 


>  <Gold.Protein.RotatedWaterAtoms>  (34) 


>  <Gold.Version>  (34) 
5.3.0

>  <PLP.Chemscore.CHOScore>  (34) 


>  <PLP.Chemscore.Hbond>  (34) 


>  <PLP.Chemscore.Internal.Correction>  (34) 


>  <PLP.Chemscore.Metal>  (34) 


>  <PLP.Fitness>  (34) 


>  <PLP.PLP>  (34) 


>  <PLP.ligand.clash>  (34) 


>  <PLP.ligand.torsion>  (34) 


>  <PLP.part.buried>  (34) 


>  <PLP.part.hbond>  (34) 


>  <PLP.part.metal>  (34) 


>  <PLP.part.nonpolar>  (34) 


>  <PLP.part.repulsive>  (34) 


>  <Version>  (34) 


$$$$
34|Compound_19|Compounds_3D_F|sdf|6|dock7|1
     RDKit          3D

 12 11  0  0  0  0  0  0  0  0999 V2000
   -4.6076  -12.2127   13.3814 O   0  0  0  0  0  0  0  0  0  0  0  0
   -5.6147  -12.3657   12.5085 C   0  0  0  0  0  0  0  0  0  0  0  0
   -6.1006  -11.3988   11.9696 O   0  0  0  0  0  0  0  0  0  0  0  0
   -6.1416  -13.7435   12.1995 C   0  0  0  0  0  0  0  0  0  0  0  0
   -5.0403  -14.5995   11.7512 N   0  0  0  0  0  0  0  0  0  0  0  0
   -5.0123  -15.9007   12.0997 C   0  0  0  0  0  0  0  0  0  0  0  0
   -5.8999  -16.3634   12.7848 O   0  0  0  0  0  0  0  0  0  0  0  0
   -3.8796  -16.7809   11.6382 C   0  0  0  0  0  0  0  0  0  0  0  0
   -3.9056  -16.8848   10.1770 N   0  0  0  0  0  0  0  0  0  0  0  0
   -2.8087  -17.2955    9.5110 C   0  0  0  0  0  0  0  0  0  0  0  0
   -1.7997  -17.5792   10.1205 O   0  0  0  0  0  0  0  0  0  0  0  0
   -2.8365  -17.4063    7.9450 B   0  0  0  0  0  0  0  0  0  0  0  0
  1  2  1  0
  2  3  2  0
  2  4  1  0
  4  5  1  0
  5  6  1  0
  6  7  2  0
  6  8  1  0
  8  9  1  0
  9 10  1  0
 10 11  2  0
 10 12  1  0
M  END
>  <Gold.Gold.Protein.RotatedWaterAtoms>  (35) 


>  <Gold.Id.Protein>  (35) 


>  <Gold.PLP.Chemscore.CHOScore>  (35) 
0.0000

>  <Gold.PLP.Chemscore.Hbond>  (35) 
2.9920

>  <Gold.PLP.Chemscore.Internal.Correction>  (35) 
0.0038

>  <Gold.PLP.Chemscore.Metal>  (35) 
0.0000

>  <Gold.PLP.Fitness>  (35) 
39.0624

>  <Gold.PLP.PLP>  (35) 
-30.7508

>  <Gold.PLP.ligand.clash>  (35) 
0.0000

>  <Gold.PLP.ligand.torsion>  (35) 
0.3341

>  <Gold.PLP.part.buried>  (35) 
-7.3771

>  <Gold.PLP.part.hbond>  (35) 
-6.3378

>  <Gold.PLP.part.metal>  (35) 
0.0000

>  <Gold.PLP.part.nonpolar>  (35) 
-16.7481

>  <Gold.PLP.part.repulsive>  (35) 
0.5929

>  <Gold.Protein.RotatedAtoms>  (35) 


>  <Gold.Protein.RotatedTorsions>  (35) 


>  <Gold.Protein.RotatedWaterAtoms>  (35) 


>  <Gold.Version>  (35) 
5.3.0

>  <PLP.Chemscore.CHOScore>  (35) 


>  <PLP.Chemscore.Hbond>  (35) 


>  <PLP.Chemscore.Internal.Correction>  (35) 


>  <PLP.Chemscore.Metal>  (35) 


>  <PLP.Fitness>  (35) 


>  <PLP.PLP>  (35) 


>  <PLP.ligand.clash>  (35) 


>  <PLP.ligand.torsion>  (35) 


>  <PLP.part.buried>  (35) 


>  <PLP.part.hbond>  (35) 


>  <PLP.part.metal>  (35) 


>  <PLP.part.nonpolar>  (35) 


>  <PLP.part.repulsive>  (35) 


>  <Version>  (35) 


$$$$
35|Compound_20|Compounds_3D_F|sdf|7|dock1|1
     RDKit          3D

  8  7  0  0  0  0  0  0  0  0999 V2000
   -2.5630  -17.3516    9.4907 B   0  0  0  0  0  0  0  0  0  0  0  0
   -3.5788  -17.2902   10.6858 C   0  0  0  0  0  0  0  0  0  0  0  0
   -4.1446  -18.2974   11.0538 O   0  0  0  0  0  0  0  0  0  0  0  0
   -3.8223  -16.1167   11.3033 N   0  0  0  0  0  0  0  0  0  0  0  0
   -4.7707  -16.0595   12.4188 C   0  0  0  0  0  0  0  0  0  0  0  0
   -5.6957  -14.8538   12.2401 C   0  0  0  0  0  0  0  0  0  0  0  0
   -4.8945  -13.6231   12.2042 N   0  0  0  0  0  0  0  0  0  0  0  0
   -5.7297  -12.4433   12.4667 C   0  0  0  0  0  0  0  0  0  0  0  0
  1  2  1  0
  2  3  2  0
  2  4  1  0
  4  5  1  0
  5  6  1  0
  6  7  1  0
  7  8  1  0
M  END
>  <Gold.Gold.Protein.RotatedWaterAtoms>  (36) 


>  <Gold.Id.Protein>  (36) 


>  <Gold.PLP.Chemscore.CHOScore>  (36) 
0.0000

>  <Gold.PLP.Chemscore.Hbond>  (36) 
2.0000

>  <Gold.PLP.Chemscore.Internal.Correction>  (36) 
0.0006

>  <Gold.PLP.Chemscore.Metal>  (36) 
0.0000

>  <Gold.PLP.Fitness>  (36) 
28.5708

>  <Gold.PLP.PLP>  (36) 
-22.9101

>  <Gold.PLP.ligand.clash>  (36) 
0.0000

>  <Gold.PLP.ligand.torsion>  (36) 
0.1699

>  <Gold.PLP.part.buried>  (36) 
-4.6770

>  <Gold.PLP.part.hbond>  (36) 
-3.0140

>  <Gold.PLP.part.metal>  (36) 
0.0000

>  <Gold.PLP.part.nonpolar>  (36) 
-15.4489

>  <Gold.PLP.part.repulsive>  (36) 
0.1463

>  <Gold.Protein.RotatedAtoms>  (36) 


>  <Gold.Protein.RotatedTorsions>  (36) 


>  <Gold.Protein.RotatedWaterAtoms>  (36) 


>  <Gold.Version>  (36) 
5.3.0

>  <PLP.Chemscore.CHOScore>  (36) 


>  <PLP.Chemscore.Hbond>  (36) 


>  <PLP.Chemscore.Internal.Correction>  (36) 


>  <PLP.Chemscore.Metal>  (36) 


>  <PLP.Fitness>  (36) 


>  <PLP.PLP>  (36) 


>  <PLP.ligand.clash>  (36) 


>  <PLP.ligand.torsion>  (36) 


>  <PLP.part.buried>  (36) 


>  <PLP.part.hbond>  (36) 


>  <PLP.part.metal>  (36) 


>  <PLP.part.nonpolar>  (36) 


>  <PLP.part.repulsive>  (36) 


>  <Version>  (36) 


$$$$
36|Compound_20|Compounds_3D_F|sdf|7|dock2|1
     RDKit          3D

  8  7  0  0  0  0  0  0  0  0999 V2000
   -2.4956  -17.3055    9.3126 B   0  0  0  0  0  0  0  0  0  0  0  0
   -3.3858  -17.3040   10.6054 C   0  0  0  0  0  0  0  0  0  0  0  0
   -3.6068  -18.3423   11.1913 O   0  0  0  0  0  0  0  0  0  0  0  0
   -3.9051  -16.1477   11.0643 N   0  0  0  0  0  0  0  0  0  0  0  0
   -4.7364  -16.1464   12.2710 C   0  0  0  0  0  0  0  0  0  0  0  0
   -5.6757  -14.9389   12.2418 C   0  0  0  0  0  0  0  0  0  0  0  0
   -4.8832  -13.7029   12.1997 N   0  0  0  0  0  0  0  0  0  0  0  0
   -5.7178  -12.5318   12.5000 C   0  0  0  0  0  0  0  0  0  0  0  0
  1  2  1  0
  2  3  2  0
  2  4  1  0
  4  5  1  0
  5  6  1  0
  6  7  1  0
  7  8  1  0
M  END
>  <Gold.Gold.Protein.RotatedWaterAtoms>  (37) 


>  <Gold.Id.Protein>  (37) 


>  <Gold.PLP.Chemscore.CHOScore>  (37) 
0.0000

>  <Gold.PLP.Chemscore.Hbond>  (37) 
2.0000

>  <Gold.PLP.Chemscore.Internal.Correction>  (37) 
0.0006

>  <Gold.PLP.Chemscore.Metal>  (37) 
0.0000

>  <Gold.PLP.Fitness>  (37) 
28.6893

>  <Gold.PLP.PLP>  (37) 
-23.1321

>  <Gold.PLP.ligand.clash>  (37) 
0.0000

>  <Gold.PLP.ligand.torsion>  (37) 
0.2217

>  <Gold.PLP.part.buried>  (37) 
-4.6600

>  <Gold.PLP.part.hbond>  (37) 
-3.0000

>  <Gold.PLP.part.metal>  (37) 
0.0000

>  <Gold.PLP.part.nonpolar>  (37) 
-15.4809

>  <Gold.PLP.part.repulsive>  (37) 
0.1380

>  <Gold.Protein.RotatedAtoms>  (37) 


>  <Gold.Protein.RotatedTorsions>  (37) 


>  <Gold.Protein.RotatedWaterAtoms>  (37) 


>  <Gold.Version>  (37) 
5.3.0

>  <PLP.Chemscore.CHOScore>  (37) 


>  <PLP.Chemscore.Hbond>  (37) 


>  <PLP.Chemscore.Internal.Correction>  (37) 


>  <PLP.Chemscore.Metal>  (37) 


>  <PLP.Fitness>  (37) 


>  <PLP.PLP>  (37) 


>  <PLP.ligand.clash>  (37) 


>  <PLP.ligand.torsion>  (37) 


>  <PLP.part.buried>  (37) 


>  <PLP.part.hbond>  (37) 


>  <PLP.part.metal>  (37) 


>  <PLP.part.nonpolar>  (37) 


>  <PLP.part.repulsive>  (37) 


>  <Version>  (37) 


$$$$
37|Compound_20|Compounds_3D_F|sdf|7|dock3|1
     RDKit          3D

  8  7  0  0  0  0  0  0  0  0999 V2000
   -2.5956  -17.5539    9.7652 B   0  0  0  0  0  0  0  0  0  0  0  0
   -3.6419  -17.4654   10.9319 C   0  0  0  0  0  0  0  0  0  0  0  0
   -4.0072  -18.4738   11.4974 O   0  0  0  0  0  0  0  0  0  0  0  0
   -4.1346  -16.2674   11.3053 N   0  0  0  0  0  0  0  0  0  0  0  0
   -5.1115  -16.1848   12.3944 C   0  0  0  0  0  0  0  0  0  0  0  0
   -5.8509  -14.8475   12.3158 C   0  0  0  0  0  0  0  0  0  0  0  0
   -4.8753  -13.7534   12.2221 N   0  0  0  0  0  0  0  0  0  0  0  0
   -5.5084  -12.4579   12.5036 C   0  0  0  0  0  0  0  0  0  0  0  0
  1  2  1  0
  2  3  2  0
  2  4  1  0
  4  5  1  0
  5  6  1  0
  6  7  1  0
  7  8  1  0
M  END
>  <Gold.Gold.Protein.RotatedWaterAtoms>  (38) 


>  <Gold.Id.Protein>  (38) 


>  <Gold.PLP.Chemscore.CHOScore>  (38) 
0.0000

>  <Gold.PLP.Chemscore.Hbond>  (38) 
2.0000

>  <Gold.PLP.Chemscore.Internal.Correction>  (38) 
0.0006

>  <Gold.PLP.Chemscore.Metal>  (38) 
0.0000

>  <Gold.PLP.Fitness>  (38) 
28.9338

>  <Gold.PLP.PLP>  (38) 
-23.3477

>  <Gold.PLP.ligand.clash>  (38) 
0.0000

>  <Gold.PLP.ligand.torsion>  (38) 
0.2073

>  <Gold.PLP.part.buried>  (38) 
-4.8084

>  <Gold.PLP.part.hbond>  (38) 
-3.0000

>  <Gold.PLP.part.metal>  (38) 
0.0000

>  <Gold.PLP.part.nonpolar>  (38) 
-15.8251

>  <Gold.PLP.part.repulsive>  (38) 
0.0859

>  <Gold.Protein.RotatedAtoms>  (38) 


>  <Gold.Protein.RotatedTorsions>  (38) 


>  <Gold.Protein.RotatedWaterAtoms>  (38) 


>  <Gold.Version>  (38) 
5.3.0

>  <PLP.Chemscore.CHOScore>  (38) 


>  <PLP.Chemscore.Hbond>  (38) 


>  <PLP.Chemscore.Internal.Correction>  (38) 


>  <PLP.Chemscore.Metal>  (38) 


>  <PLP.Fitness>  (38) 


>  <PLP.PLP>  (38) 


>  <PLP.ligand.clash>  (38) 


>  <PLP.ligand.torsion>  (38) 


>  <PLP.part.buried>  (38) 


>  <PLP.part.hbond>  (38) 


>  <PLP.part.metal>  (38) 


>  <PLP.part.nonpolar>  (38) 


>  <PLP.part.repulsive>  (38) 


>  <Version>  (38) 


$$$$
38|Compound_21|Compounds_3D_F|sdf|8|dock1|1
     RDKit          3D

 10  9  0  0  0  0  0  0  0  0999 V2000
   -4.8426  -13.8083   12.2084 O   0  0  0  0  0  0  0  0  0  0  0  0
   -6.2685  -13.8834   12.2575 C   0  0  0  0  0  0  0  0  0  0  0  0
   -6.7502  -15.0301   11.3673 C   0  0  0  0  0  0  0  0  0  0  0  0
   -5.8665  -15.1512   10.2057 N   0  0  0  0  0  0  0  0  0  0  0  0
   -6.1375  -16.0556    9.2438 C   0  0  0  0  0  0  0  0  0  0  0  0
   -7.1132  -16.7693    9.3405 O   0  0  0  0  0  0  0  0  0  0  0  0
   -5.1901  -16.1855    7.9983 B   0  0  0  0  0  0  0  0  0  0  0  0
   -6.7290  -16.3368   12.1626 C   0  0  0  0  0  0  0  0  0  0  0  0
   -8.1775  -14.7438   10.8953 C   0  0  0  0  0  0  0  0  0  0  0  0
   -9.0704  -14.8087   12.0091 O   0  0  0  0  0  0  0  0  0  0  0  0
  1  2  1  0
  2  3  1  0
  3  4  1  0
  3  8  1  0
  3  9  1  0
  4  5  1  0
  5  6  2  0
  5  7  1  0
  9 10  1  0
M  END
>  <Gold.Gold.Protein.RotatedWaterAtoms>  (39) 


>  <Gold.Id.Protein>  (39) 


>  <Gold.PLP.Chemscore.CHOScore>  (39) 
0.0000

>  <Gold.PLP.Chemscore.Hbond>  (39) 
2.9825

>  <Gold.PLP.Chemscore.Internal.Correction>  (39) 
0.0029

>  <Gold.PLP.Chemscore.Metal>  (39) 
0.0000

>  <Gold.PLP.Fitness>  (39) 
31.3290

>  <Gold.PLP.PLP>  (39) 
-23.3998

>  <Gold.PLP.ligand.clash>  (39) 
0.0000

>  <Gold.PLP.ligand.torsion>  (39) 
0.5106

>  <Gold.PLP.part.buried>  (39) 
-4.8321

>  <Gold.PLP.part.hbond>  (39) 
-4.0000

>  <Gold.PLP.part.metal>  (39) 
0.0000

>  <Gold.PLP.part.nonpolar>  (39) 
-14.6412

>  <Gold.PLP.part.repulsive>  (39) 
0.1101

>  <Gold.Protein.RotatedAtoms>  (39) 


>  <Gold.Protein.RotatedTorsions>  (39) 


>  <Gold.Protein.RotatedWaterAtoms>  (39) 


>  <Gold.Version>  (39) 
5.3.0

>  <PLP.Chemscore.CHOScore>  (39) 


>  <PLP.Chemscore.Hbond>  (39) 


>  <PLP.Chemscore.Internal.Correction>  (39) 


>  <PLP.Chemscore.Metal>  (39) 


>  <PLP.Fitness>  (39) 


>  <PLP.PLP>  (39) 


>  <PLP.ligand.clash>  (39) 


>  <PLP.ligand.torsion>  (39) 


>  <PLP.part.buried>  (39) 


>  <PLP.part.hbond>  (39) 


>  <PLP.part.metal>  (39) 


>  <PLP.part.nonpolar>  (39) 


>  <PLP.part.repulsive>  (39) 


>  <Version>  (39) 


$$$$
39|Compound_21|Compounds_3D_F|sdf|8|dock2|1
     RDKit          3D

 10  9  0  0  0  0  0  0  0  0999 V2000
   -5.8996  -14.1079   10.7017 O   0  0  0  0  0  0  0  0  0  0  0  0
   -6.6163  -15.1504   11.3657 C   0  0  0  0  0  0  0  0  0  0  0  0
   -8.1007  -15.0567   11.0089 C   0  0  0  0  0  0  0  0  0  0  0  0
   -8.2538  -15.0523    9.5524 N   0  0  0  0  0  0  0  0  0  0  0  0
   -7.7775  -16.0794    8.8213 C   0  0  0  0  0  0  0  0  0  0  0  0
   -7.2219  -17.0074    9.3697 O   0  0  0  0  0  0  0  0  0  0  0  0
   -7.9416  -16.0747    7.2596 B   0  0  0  0  0  0  0  0  0  0  0  0
   -8.8432  -16.2585   11.5961 C   0  0  0  0  0  0  0  0  0  0  0  0
   -8.6833  -13.7653   11.5874 C   0  0  0  0  0  0  0  0  0  0  0  0
   -9.9654  -13.5182   11.0067 O   0  0  0  0  0  0  0  0  0  0  0  0
  1  2  1  0
  2  3  1  0
  3  4  1  0
  3  8  1  0
  3  9  1  0
  4  5  1  0
  5  6  2  0
  5  7  1  0
  9 10  1  0
M  END
>  <Gold.Gold.Protein.RotatedWaterAtoms>  (40) 


>  <Gold.Id.Protein>  (40) 


>  <Gold.PLP.Chemscore.CHOScore>  (40) 
0.0000

>  <Gold.PLP.Chemscore.Hbond>  (40) 
3.8800

>  <Gold.PLP.Chemscore.Internal.Correction>  (40) 
0.0014

>  <Gold.PLP.Chemscore.Metal>  (40) 
0.0000

>  <Gold.PLP.Fitness>  (40) 
34.1627

>  <Gold.PLP.PLP>  (40) 
-22.8524

>  <Gold.PLP.ligand.clash>  (40) 
0.0000

>  <Gold.PLP.ligand.torsion>  (40) 
0.1655

>  <Gold.PLP.part.buried>  (40) 
-3.2001

>  <Gold.PLP.part.hbond>  (40) 
-4.7394

>  <Gold.PLP.part.metal>  (40) 
0.0000

>  <Gold.PLP.part.nonpolar>  (40) 
-14.7612

>  <Gold.PLP.part.repulsive>  (40) 
0.0953

>  <Gold.Protein.RotatedAtoms>  (40) 


>  <Gold.Protein.RotatedTorsions>  (40) 


>  <Gold.Protein.RotatedWaterAtoms>  (40) 


>  <Gold.Version>  (40) 
5.3.0

>  <PLP.Chemscore.CHOScore>  (40) 


>  <PLP.Chemscore.Hbond>  (40) 


>  <PLP.Chemscore.Internal.Correction>  (40) 


>  <PLP.Chemscore.Metal>  (40) 


>  <PLP.Fitness>  (40) 


>  <PLP.PLP>  (40) 


>  <PLP.ligand.clash>  (40) 


>  <PLP.ligand.torsion>  (40) 


>  <PLP.part.buried>  (40) 


>  <PLP.part.hbond>  (40) 


>  <PLP.part.metal>  (40) 


>  <PLP.part.nonpolar>  (40) 


>  <PLP.part.repulsive>  (40) 


>  <Version>  (40) 


$$$$
40|Compound_21|Compounds_3D_F|sdf|8|dock3|1
     RDKit          3D

 10  9  0  0  0  0  0  0  0  0999 V2000
  -10.0314  -15.5801    8.8455 O   0  0  0  0  0  0  0  0  0  0  0  0
   -8.7188  -16.1154    9.0233 C   0  0  0  0  0  0  0  0  0  0  0  0
   -8.1198  -15.5772   10.3238 C   0  0  0  0  0  0  0  0  0  0  0  0
   -8.4043  -14.1449   10.4367 N   0  0  0  0  0  0  0  0  0  0  0  0
   -7.9278  -13.4435   11.4842 C   0  0  0  0  0  0  0  0  0  0  0  0
   -7.2636  -13.9986   12.3335 O   0  0  0  0  0  0  0  0  0  0  0  0
   -8.2328  -11.9079   11.6053 B   0  0  0  0  0  0  0  0  0  0  0  0
   -8.7369  -16.3150   11.5134 C   0  0  0  0  0  0  0  0  0  0  0  0
   -6.6055  -15.7978   10.3170 C   0  0  0  0  0  0  0  0  0  0  0  0
   -5.9967  -14.9005    9.3862 O   0  0  0  0  0  0  0  0  0  0  0  0
  1  2  1  0
  2  3  1  0
  3  4  1  0
  3  8  1  0
  3  9  1  0
  4  5  1  0
  5  6  2  0
  5  7  1  0
  9 10  1  0
M  END
>  <Gold.Gold.Protein.RotatedWaterAtoms>  (41) 


>  <Gold.Id.Protein>  (41) 


>  <Gold.PLP.Chemscore.CHOScore>  (41) 
0.0000

>  <Gold.PLP.Chemscore.Hbond>  (41) 
3.6400

>  <Gold.PLP.Chemscore.Internal.Correction>  (41) 
0.0014

>  <Gold.PLP.Chemscore.Metal>  (41) 
0.0000

>  <Gold.PLP.Fitness>  (41) 
33.5553

>  <Gold.PLP.PLP>  (41) 
-23.2603

>  <Gold.PLP.ligand.clash>  (41) 
0.0000

>  <Gold.PLP.ligand.torsion>  (41) 
0.3132

>  <Gold.PLP.part.buried>  (41) 
-4.2060

>  <Gold.PLP.part.hbond>  (41) 
-5.0000

>  <Gold.PLP.part.metal>  (41) 
0.0000

>  <Gold.PLP.part.nonpolar>  (41) 
-14.0839

>  <Gold.PLP.part.repulsive>  (41) 
0.2355

>  <Gold.Protein.RotatedAtoms>  (41) 


>  <Gold.Protein.RotatedTorsions>  (41) 


>  <Gold.Protein.RotatedWaterAtoms>  (41) 


>  <Gold.Version>  (41) 
5.3.0

>  <PLP.Chemscore.CHOScore>  (41) 


>  <PLP.Chemscore.Hbond>  (41) 


>  <PLP.Chemscore.Internal.Correction>  (41) 


>  <PLP.Chemscore.Metal>  (41) 


>  <PLP.Fitness>  (41) 


>  <PLP.PLP>  (41) 


>  <PLP.ligand.clash>  (41) 


>  <PLP.ligand.torsion>  (41) 


>  <PLP.part.buried>  (41) 


>  <PLP.part.hbond>  (41) 


>  <PLP.part.metal>  (41) 


>  <PLP.part.nonpolar>  (41) 


>  <PLP.part.repulsive>  (41) 


>  <Version>  (41) 


$$$$
41|Compound_21|Compounds_3D_F|sdf|8|dock4|1
     RDKit          3D

 10  9  0  0  0  0  0  0  0  0999 V2000
   -5.3250  -15.3114    9.2692 O   0  0  0  0  0  0  0  0  0  0  0  0
   -6.0819  -15.8165   10.3706 C   0  0  0  0  0  0  0  0  0  0  0  0
   -5.2171  -15.8054   11.6321 C   0  0  0  0  0  0  0  0  0  0  0  0
   -4.8325  -14.4282   11.9488 N   0  0  0  0  0  0  0  0  0  0  0  0
   -5.7816  -13.4956   12.1634 C   0  0  0  0  0  0  0  0  0  0  0  0
   -6.9542  -13.7970   12.0939 O   0  0  0  0  0  0  0  0  0  0  0  0
   -5.3693  -12.0190   12.5030 B   0  0  0  0  0  0  0  0  0  0  0  0
   -6.0106  -16.3947   12.7998 C   0  0  0  0  0  0  0  0  0  0  0  0
   -3.9597  -16.6450   11.3953 C   0  0  0  0  0  0  0  0  0  0  0  0
   -4.3273  -18.0136   11.2120 O   0  0  0  0  0  0  0  0  0  0  0  0
  1  2  1  0
  2  3  1  0
  3  4  1  0
  3  8  1  0
  3  9  1  0
  4  5  1  0
  5  6  2  0
  5  7  1  0
  9 10  1  0
M  END
>  <Gold.Gold.Protein.RotatedWaterAtoms>  (42) 


>  <Gold.Id.Protein>  (42) 


>  <Gold.PLP.Chemscore.CHOScore>  (42) 
0.0000

>  <Gold.PLP.Chemscore.Hbond>  (42) 
1.9913

>  <Gold.PLP.Chemscore.Internal.Correction>  (42) 
0.0007

>  <Gold.PLP.Chemscore.Metal>  (42) 
0.0000

>  <Gold.PLP.Fitness>  (42) 
32.9850

>  <Gold.PLP.PLP>  (42) 
-27.0721

>  <Gold.PLP.ligand.clash>  (42) 
0.0000

>  <Gold.PLP.ligand.torsion>  (42) 
0.0308

>  <Gold.PLP.part.buried>  (42) 
-4.7320

>  <Gold.PLP.part.hbond>  (42) 
-4.0000

>  <Gold.PLP.part.metal>  (42) 
0.0000

>  <Gold.PLP.part.nonpolar>  (42) 
-18.7123

>  <Gold.PLP.part.repulsive>  (42) 
0.2403

>  <Gold.Protein.RotatedAtoms>  (42) 


>  <Gold.Protein.RotatedTorsions>  (42) 


>  <Gold.Protein.RotatedWaterAtoms>  (42) 


>  <Gold.Version>  (42) 
5.3.0

>  <PLP.Chemscore.CHOScore>  (42) 


>  <PLP.Chemscore.Hbond>  (42) 


>  <PLP.Chemscore.Internal.Correction>  (42) 


>  <PLP.Chemscore.Metal>  (42) 


>  <PLP.Fitness>  (42) 


>  <PLP.PLP>  (42) 


>  <PLP.ligand.clash>  (42) 


>  <PLP.ligand.torsion>  (42) 


>  <PLP.part.buried>  (42) 


>  <PLP.part.hbond>  (42) 


>  <PLP.part.metal>  (42) 


>  <PLP.part.nonpolar>  (42) 


>  <PLP.part.repulsive>  (42) 


>  <Version>  (42) 


$$$$
42|Compound_21|Compounds_3D_F|sdf|8|dock5|1
     RDKit          3D

 10  9  0  0  0  0  0  0  0  0999 V2000
   -5.1904  -15.2569    9.4378 O   0  0  0  0  0  0  0  0  0  0  0  0
   -5.9222  -15.9722   10.4348 C   0  0  0  0  0  0  0  0  0  0  0  0
   -5.1757  -15.8976   11.7677 C   0  0  0  0  0  0  0  0  0  0  0  0
   -4.8571  -14.5009   12.0718 N   0  0  0  0  0  0  0  0  0  0  0  0
   -5.8458  -13.5904   12.1724 C   0  0  0  0  0  0  0  0  0  0  0  0
   -6.9993  -13.9279   12.0108 O   0  0  0  0  0  0  0  0  0  0  0  0
   -5.5043  -12.0928   12.4985 B   0  0  0  0  0  0  0  0  0  0  0  0
   -6.0562  -16.4734   12.8784 C   0  0  0  0  0  0  0  0  0  0  0  0
   -3.8807  -16.7075   11.6725 C   0  0  0  0  0  0  0  0  0  0  0  0
   -3.1092  -16.2449   10.5622 O   0  0  0  0  0  0  0  0  0  0  0  0
  1  2  1  0
  2  3  1  0
  3  4  1  0
  3  8  1  0
  3  9  1  0
  4  5  1  0
  5  6  2  0
  5  7  1  0
  9 10  1  0
M  END
>  <Gold.Gold.Protein.RotatedWaterAtoms>  (43) 


>  <Gold.Id.Protein>  (43) 


>  <Gold.PLP.Chemscore.CHOScore>  (43) 
0.0000

>  <Gold.PLP.Chemscore.Hbond>  (43) 
3.7088

>  <Gold.PLP.Chemscore.Internal.Correction>  (43) 
0.0007

>  <Gold.PLP.Chemscore.Metal>  (43) 
0.0000

>  <Gold.PLP.Fitness>  (43) 
39.5863

>  <Gold.PLP.PLP>  (43) 
-28.6172

>  <Gold.PLP.ligand.clash>  (43) 
0.0000

>  <Gold.PLP.ligand.torsion>  (43) 
0.0790

>  <Gold.PLP.part.buried>  (43) 
-5.4907

>  <Gold.PLP.part.hbond>  (43) 
-5.0371

>  <Gold.PLP.part.metal>  (43) 
0.0000

>  <Gold.PLP.part.nonpolar>  (43) 
-18.6835

>  <Gold.PLP.part.repulsive>  (43) 
0.2165

>  <Gold.Protein.RotatedAtoms>  (43) 


>  <Gold.Protein.RotatedTorsions>  (43) 


>  <Gold.Protein.RotatedWaterAtoms>  (43) 


>  <Gold.Version>  (43) 
5.3.0

>  <PLP.Chemscore.CHOScore>  (43) 


>  <PLP.Chemscore.Hbond>  (43) 


>  <PLP.Chemscore.Internal.Correction>  (43) 


>  <PLP.Chemscore.Metal>  (43) 


>  <PLP.Fitness>  (43) 


>  <PLP.PLP>  (43) 


>  <PLP.ligand.clash>  (43) 


>  <PLP.ligand.torsion>  (43) 


>  <PLP.part.buried>  (43) 


>  <PLP.part.hbond>  (43) 


>  <PLP.part.metal>  (43) 


>  <PLP.part.nonpolar>  (43) 


>  <PLP.part.repulsive>  (43) 


>  <Version>  (43) 


$$$$
43|Compound_21|Compounds_3D_F|sdf|8|dock6|1
     RDKit          3D

 10  9  0  0  0  0  0  0  0  0999 V2000
   -5.2998  -15.3126    9.3572 O   0  0  0  0  0  0  0  0  0  0  0  0
   -5.7925  -16.2380   10.3277 C   0  0  0  0  0  0  0  0  0  0  0  0
   -4.9117  -16.1847   11.5771 C   0  0  0  0  0  0  0  0  0  0  0  0
   -4.5885  -14.7905   11.8880 N   0  0  0  0  0  0  0  0  0  0  0  0
   -5.5752  -13.9157   12.1667 C   0  0  0  0  0  0  0  0  0  0  0  0
   -6.7309  -14.2833   12.1597 O   0  0  0  0  0  0  0  0  0  0  0  0
   -5.2288  -12.4209   12.5000 B   0  0  0  0  0  0  0  0  0  0  0  0
   -5.6601  -16.8098   12.7559 C   0  0  0  0  0  0  0  0  0  0  0  0
   -3.6193  -16.9639   11.3230 C   0  0  0  0  0  0  0  0  0  0  0  0
   -2.8660  -16.3165   10.2956 O   0  0  0  0  0  0  0  0  0  0  0  0
  1  2  1  0
  2  3  1  0
  3  4  1  0
  3  8  1  0
  3  9  1  0
  4  5  1  0
  5  6  2  0
  5  7  1  0
  9 10  1  0
M  END
>  <Gold.Gold.Protein.RotatedWaterAtoms>  (44) 


>  <Gold.Id.Protein>  (44) 


>  <Gold.PLP.Chemscore.CHOScore>  (44) 
0.0000

>  <Gold.PLP.Chemscore.Hbond>  (44) 
3.8313

>  <Gold.PLP.Chemscore.Internal.Correction>  (44) 
0.0007

>  <Gold.PLP.Chemscore.Metal>  (44) 
0.0000

>  <Gold.PLP.Fitness>  (44) 
38.8888

>  <Gold.PLP.PLP>  (44) 
-27.8896

>  <Gold.PLP.ligand.clash>  (44) 
0.0000

>  <Gold.PLP.ligand.torsion>  (44) 
0.2476

>  <Gold.PLP.part.buried>  (44) 
-5.4790

>  <Gold.PLP.part.hbond>  (44) 
-5.4895

>  <Gold.PLP.part.metal>  (44) 
0.0000

>  <Gold.PLP.part.nonpolar>  (44) 
-18.3457

>  <Gold.PLP.part.repulsive>  (44) 
0.2663

>  <Gold.Protein.RotatedAtoms>  (44) 


>  <Gold.Protein.RotatedTorsions>  (44) 


>  <Gold.Protein.RotatedWaterAtoms>  (44) 


>  <Gold.Version>  (44) 
5.3.0

>  <PLP.Chemscore.CHOScore>  (44) 


>  <PLP.Chemscore.Hbond>  (44) 


>  <PLP.Chemscore.Internal.Correction>  (44) 


>  <PLP.Chemscore.Metal>  (44) 


>  <PLP.Fitness>  (44) 


>  <PLP.PLP>  (44) 


>  <PLP.ligand.clash>  (44) 


>  <PLP.ligand.torsion>  (44) 


>  <PLP.part.buried>  (44) 


>  <PLP.part.hbond>  (44) 


>  <PLP.part.metal>  (44) 


>  <PLP.part.nonpolar>  (44) 


>  <PLP.part.repulsive>  (44) 


>  <Version>  (44) 


$$$$
44|Compound_21|Compounds_3D_F|sdf|8|dock7|1
     RDKit          3D

 10  9  0  0  0  0  0  0  0  0999 V2000
  -10.3041  -17.3667   10.3333 O   0  0  0  0  0  0  0  0  0  0  0  0
  -11.1624  -18.3031    9.6795 C   0  0  0  0  0  0  0  0  0  0  0  0
  -11.8103  -19.2160   10.7218 C   0  0  0  0  0  0  0  0  0  0  0  0
  -12.7506  -20.1230   10.0600 N   0  0  0  0  0  0  0  0  0  0  0  0
  -13.7684  -19.6243    9.3306 C   0  0  0  0  0  0  0  0  0  0  0  0
  -13.9056  -18.4242    9.2227 O   0  0  0  0  0  0  0  0  0  0  0  0
  -14.7766  -20.5967    8.6210 B   0  0  0  0  0  0  0  0  0  0  0  0
  -10.7268  -20.0320   11.4292 C   0  0  0  0  0  0  0  0  0  0  0  0
  -12.5596  -18.3647   11.7494 C   0  0  0  0  0  0  0  0  0  0  0  0
  -11.6231  -17.5904   12.5014 O   0  0  0  0  0  0  0  0  0  0  0  0
  1  2  1  0
  2  3  1  0
  3  4  1  0
  3  8  1  0
  3  9  1  0
  4  5  1  0
  5  6  2  0
  5  7  1  0
  9 10  1  0
M  END
>  <Gold.Gold.Protein.RotatedWaterAtoms>  (45) 


>  <Gold.Id.Protein>  (45) 


>  <Gold.PLP.Chemscore.CHOScore>  (45) 
0.0000

>  <Gold.PLP.Chemscore.Hbond>  (45) 
3.0000

>  <Gold.PLP.Chemscore.Internal.Correction>  (45) 
0.0005

>  <Gold.PLP.Chemscore.Metal>  (45) 
0.0000

>  <Gold.PLP.Fitness>  (45) 
30.3492

>  <Gold.PLP.PLP>  (45) 
-21.4479

>  <Gold.PLP.ligand.clash>  (45) 
0.0000

>  <Gold.PLP.ligand.torsion>  (45) 
0.0496

>  <Gold.PLP.part.buried>  (45) 
-2.9273

>  <Gold.PLP.part.hbond>  (45) 
-3.0000

>  <Gold.PLP.part.metal>  (45) 
0.0000

>  <Gold.PLP.part.nonpolar>  (45) 
-14.5362

>  <Gold.PLP.part.repulsive>  (45) 
0.1209

>  <Gold.Protein.RotatedAtoms>  (45) 


>  <Gold.Protein.RotatedTorsions>  (45) 


>  <Gold.Protein.RotatedWaterAtoms>  (45) 


>  <Gold.Version>  (45) 
5.3.0

>  <PLP.Chemscore.CHOScore>  (45) 


>  <PLP.Chemscore.Hbond>  (45) 


>  <PLP.Chemscore.Internal.Correction>  (45) 


>  <PLP.Chemscore.Metal>  (45) 


>  <PLP.Fitness>  (45) 


>  <PLP.PLP>  (45) 


>  <PLP.ligand.clash>  (45) 


>  <PLP.ligand.torsion>  (45) 


>  <PLP.part.buried>  (45) 


>  <PLP.part.hbond>  (45) 


>  <PLP.part.metal>  (45) 


>  <PLP.part.nonpolar>  (45) 


>  <PLP.part.repulsive>  (45) 


>  <Version>  (45) 


$$$$
45|Compound_21|Compounds_3D_F|sdf|8|dock8|1
     RDKit          3D

 10  9  0  0  0  0  0  0  0  0999 V2000
   -5.2612  -15.5576    9.2655 O   0  0  0  0  0  0  0  0  0  0  0  0
   -5.9706  -16.0914   10.3848 C   0  0  0  0  0  0  0  0  0  0  0  0
   -5.0627  -16.0833   11.6157 C   0  0  0  0  0  0  0  0  0  0  0  0
   -4.6863  -14.7047   11.9361 N   0  0  0  0  0  0  0  0  0  0  0  0
   -5.6407  -13.7790   12.1564 C   0  0  0  0  0  0  0  0  0  0  0  0
   -6.8115  -14.0878   12.0890 O   0  0  0  0  0  0  0  0  0  0  0  0
   -5.2371  -12.3009   12.4998 B   0  0  0  0  0  0  0  0  0  0  0  0
   -5.8071  -16.6976   12.8027 C   0  0  0  0  0  0  0  0  0  0  0  0
   -3.8029  -16.9021   11.3251 C   0  0  0  0  0  0  0  0  0  0  0  0
   -3.0851  -16.3053   10.2432 O   0  0  0  0  0  0  0  0  0  0  0  0
  1  2  1  0
  2  3  1  0
  3  4  1  0
  3  8  1  0
  3  9  1  0
  4  5  1  0
  5  6  2  0
  5  7  1  0
  9 10  1  0
M  END
>  <Gold.Gold.Protein.RotatedWaterAtoms>  (46) 


>  <Gold.Id.Protein>  (46) 


>  <Gold.PLP.Chemscore.CHOScore>  (46) 
0.0000

>  <Gold.PLP.Chemscore.Hbond>  (46) 
2.9280

>  <Gold.PLP.Chemscore.Internal.Correction>  (46) 
0.0005

>  <Gold.PLP.Chemscore.Metal>  (46) 
0.0000

>  <Gold.PLP.Fitness>  (46) 
36.9982

>  <Gold.PLP.PLP>  (46) 
-28.2653

>  <Gold.PLP.ligand.clash>  (46) 
0.0000

>  <Gold.PLP.ligand.torsion>  (46) 
0.0258

>  <Gold.PLP.part.buried>  (46) 
-5.5261

>  <Gold.PLP.part.hbond>  (46) 
-4.7590

>  <Gold.PLP.part.metal>  (46) 
0.0000

>  <Gold.PLP.part.nonpolar>  (46) 
-18.2837

>  <Gold.PLP.part.repulsive>  (46) 
0.2488

>  <Gold.Protein.RotatedAtoms>  (46) 


>  <Gold.Protein.RotatedTorsions>  (46) 


>  <Gold.Protein.RotatedWaterAtoms>  (46) 


>  <Gold.Version>  (46) 
5.3.0

>  <PLP.Chemscore.CHOScore>  (46) 


>  <PLP.Chemscore.Hbond>  (46) 


>  <PLP.Chemscore.Internal.Correction>  (46) 


>  <PLP.Chemscore.Metal>  (46) 


>  <PLP.Fitness>  (46) 


>  <PLP.PLP>  (46) 


>  <PLP.ligand.clash>  (46) 


>  <PLP.ligand.torsion>  (46) 


>  <PLP.part.buried>  (46) 


>  <PLP.part.hbond>  (46) 


>  <PLP.part.metal>  (46) 


>  <PLP.part.nonpolar>  (46) 


>  <PLP.part.repulsive>  (46) 


>  <Version>  (46) 


$$$$
46|Compound_23|Compounds_3D_F|sdf|9|dock1|1
     RDKit          3D

 11 10  0  0  0  0  0  0  0  0999 V2000
   -3.3149  -16.3941   10.6435 O   0  0  0  0  0  0  0  0  0  0  0  0
   -4.3230  -16.6369   11.4947 C   0  0  0  0  0  0  0  0  0  0  0  0
   -4.2947  -17.6164   12.2026 O   0  0  0  0  0  0  0  0  0  0  0  0
   -5.4922  -15.6887   11.5684 C   0  0  0  0  0  0  0  0  0  0  0  0
   -5.0191  -14.3615   11.9696 N   0  0  0  0  0  0  0  0  0  0  0  0
   -5.8909  -13.3385   12.0744 C   0  0  0  0  0  0  0  0  0  0  0  0
   -7.0664  -13.5173   11.8378 O   0  0  0  0  0  0  0  0  0  0  0  0
   -5.3837  -11.9165   12.5045 B   0  0  0  0  0  0  0  0  0  0  0  0
   -6.5013  -16.2024   12.5971 C   0  0  0  0  0  0  0  0  0  0  0  0
   -6.1636  -15.5982   10.1962 C   0  0  0  0  0  0  0  0  0  0  0  0
   -5.1989  -15.2001    9.2205 O   0  0  0  0  0  0  0  0  0  0  0  0
  1  2  1  0
  2  3  2  0
  2  4  1  0
  4  5  1  0
  4  9  1  0
  4 10  1  0
  5  6  1  0
  6  7  2  0
  6  8  1  0
 10 11  1  0
M  END
>  <Gold.Gold.Protein.RotatedWaterAtoms>  (47) 


>  <Gold.Id.Protein>  (47) 


>  <Gold.PLP.Chemscore.CHOScore>  (47) 
0.0000

>  <Gold.PLP.Chemscore.Hbond>  (47) 
3.0243

>  <Gold.PLP.Chemscore.Internal.Correction>  (47) 
0.0017

>  <Gold.PLP.Chemscore.Metal>  (47) 
0.0000

>  <Gold.PLP.Fitness>  (47) 
37.1625

>  <Gold.PLP.PLP>  (47) 
-28.1168

>  <Gold.PLP.ligand.clash>  (47) 
0.0000

>  <Gold.PLP.ligand.torsion>  (47) 
0.0144

>  <Gold.PLP.part.buried>  (47) 
-6.1846

>  <Gold.PLP.part.hbond>  (47) 
-5.1741

>  <Gold.PLP.part.metal>  (47) 
0.0000

>  <Gold.PLP.part.nonpolar>  (47) 
-18.0215

>  <Gold.PLP.part.repulsive>  (47) 
0.2702

>  <Gold.Protein.RotatedAtoms>  (47) 


>  <Gold.Protein.RotatedTorsions>  (47) 


>  <Gold.Protein.RotatedWaterAtoms>  (47) 


>  <Gold.Version>  (47) 
5.3.0

>  <PLP.Chemscore.CHOScore>  (47) 


>  <PLP.Chemscore.Hbond>  (47) 


>  <PLP.Chemscore.Internal.Correction>  (47) 


>  <PLP.Chemscore.Metal>  (47) 


>  <PLP.Fitness>  (47) 


>  <PLP.PLP>  (47) 


>  <PLP.ligand.clash>  (47) 


>  <PLP.ligand.torsion>  (47) 


>  <PLP.part.buried>  (47) 


>  <PLP.part.hbond>  (47) 


>  <PLP.part.metal>  (47) 


>  <PLP.part.nonpolar>  (47) 


>  <PLP.part.repulsive>  (47) 


>  <Version>  (47) 


$$$$
47|Compound_23|Compounds_3D_F|sdf|9|dock2|1
     RDKit          3D

 11 10  0  0  0  0  0  0  0  0999 V2000
   -5.8004  -15.2109    8.3716 O   0  0  0  0  0  0  0  0  0  0  0  0
   -6.0944  -15.9215    9.4708 C   0  0  0  0  0  0  0  0  0  0  0  0
   -5.8625  -17.1074    9.5048 O   0  0  0  0  0  0  0  0  0  0  0  0
   -6.7151  -15.2416   10.6642 C   0  0  0  0  0  0  0  0  0  0  0  0
   -5.8349  -14.1647   11.1244 N   0  0  0  0  0  0  0  0  0  0  0  0
   -6.2222  -13.3642   12.1375 C   0  0  0  0  0  0  0  0  0  0  0  0
   -7.2985  -13.5363   12.6685 O   0  0  0  0  0  0  0  0  0  0  0  0
   -5.2787  -12.2105   12.6305 B   0  0  0  0  0  0  0  0  0  0  0  0
   -6.9053  -16.2602   11.7896 C   0  0  0  0  0  0  0  0  0  0  0  0
   -8.0734  -14.6573   10.2698 C   0  0  0  0  0  0  0  0  0  0  0  0
   -8.9990  -15.7206   10.0380 O   0  0  0  0  0  0  0  0  0  0  0  0
  1  2  1  0
  2  3  2  0
  2  4  1  0
  4  5  1  0
  4  9  1  0
  4 10  1  0
  5  6  1  0
  6  7  2  0
  6  8  1  0
 10 11  1  0
M  END
>  <Gold.Gold.Protein.RotatedWaterAtoms>  (48) 


>  <Gold.Id.Protein>  (48) 


>  <Gold.PLP.Chemscore.CHOScore>  (48) 
0.0000

>  <Gold.PLP.Chemscore.Hbond>  (48) 
2.0000

>  <Gold.PLP.Chemscore.Internal.Correction>  (48) 
0.0006

>  <Gold.PLP.Chemscore.Metal>  (48) 
0.0000

>  <Gold.PLP.Fitness>  (48) 
28.5981

>  <Gold.PLP.PLP>  (48) 
-22.8067

>  <Gold.PLP.ligand.clash>  (48) 
0.0000

>  <Gold.PLP.ligand.torsion>  (48) 
0.1047

>  <Gold.PLP.part.buried>  (48) 
-4.9779

>  <Gold.PLP.part.hbond>  (48) 
-3.4654

>  <Gold.PLP.part.metal>  (48) 
0.0000

>  <Gold.PLP.part.nonpolar>  (48) 
-15.8765

>  <Gold.PLP.part.repulsive>  (48) 
1.5171

>  <Gold.Protein.RotatedAtoms>  (48) 


>  <Gold.Protein.RotatedTorsions>  (48) 


>  <Gold.Protein.RotatedWaterAtoms>  (48) 


>  <Gold.Version>  (48) 
5.3.0

>  <PLP.Chemscore.CHOScore>  (48) 


>  <PLP.Chemscore.Hbond>  (48) 


>  <PLP.Chemscore.Internal.Correction>  (48) 


>  <PLP.Chemscore.Metal>  (48) 


>  <PLP.Fitness>  (48) 


>  <PLP.PLP>  (48) 


>  <PLP.ligand.clash>  (48) 


>  <PLP.ligand.torsion>  (48) 


>  <PLP.part.buried>  (48) 


>  <PLP.part.hbond>  (48) 


>  <PLP.part.metal>  (48) 


>  <PLP.part.nonpolar>  (48) 


>  <PLP.part.repulsive>  (48) 


>  <Version>  (48) 


$$$$
48|Compound_23|Compounds_3D_F|sdf|9|dock3|1
     RDKit          3D

 11 10  0  0  0  0  0  0  0  0999 V2000
   -8.2667  -12.6041   11.5039 O   0  0  0  0  0  0  0  0  0  0  0  0
   -8.7762  -13.8237   11.7335 C   0  0  0  0  0  0  0  0  0  0  0  0
   -9.7415  -13.9513   12.4500 O   0  0  0  0  0  0  0  0  0  0  0  0
   -8.1449  -15.0361   11.0987 C   0  0  0  0  0  0  0  0  0  0  0  0
   -8.3394  -14.9838    9.6476 N   0  0  0  0  0  0  0  0  0  0  0  0
   -7.8442  -15.9639    8.8655 C   0  0  0  0  0  0  0  0  0  0  0  0
   -7.2390  -16.8890    9.3632 O   0  0  0  0  0  0  0  0  0  0  0  0
   -8.0530  -15.9077    7.3106 B   0  0  0  0  0  0  0  0  0  0  0  0
   -8.7990  -16.3021   11.6552 C   0  0  0  0  0  0  0  0  0  0  0  0
   -6.6472  -15.0554   11.4127 C   0  0  0  0  0  0  0  0  0  0  0  0
   -5.9986  -14.0007   10.7000 O   0  0  0  0  0  0  0  0  0  0  0  0
  1  2  1  0
  2  3  2  0
  2  4  1  0
  4  5  1  0
  4  9  1  0
  4 10  1  0
  5  6  1  0
  6  7  2  0
  6  8  1  0
 10 11  1  0
M  END
>  <Gold.Gold.Protein.RotatedWaterAtoms>  (49) 


>  <Gold.Id.Protein>  (49) 


>  <Gold.PLP.Chemscore.CHOScore>  (49) 
0.0000

>  <Gold.PLP.Chemscore.Hbond>  (49) 
2.9750

>  <Gold.PLP.Chemscore.Internal.Correction>  (49) 
0.0006

>  <Gold.PLP.Chemscore.Metal>  (49) 
0.0000

>  <Gold.PLP.Fitness>  (49) 
31.9542

>  <Gold.PLP.PLP>  (49) 
-23.4692

>  <Gold.PLP.ligand.clash>  (49) 
0.0000

>  <Gold.PLP.ligand.torsion>  (49) 
0.2203

>  <Gold.PLP.part.buried>  (49) 
-4.7834

>  <Gold.PLP.part.hbond>  (49) 
-4.0000

>  <Gold.PLP.part.metal>  (49) 
0.0000

>  <Gold.PLP.part.nonpolar>  (49) 
-15.0907

>  <Gold.PLP.part.repulsive>  (49) 
0.2254

>  <Gold.Protein.RotatedAtoms>  (49) 


>  <Gold.Protein.RotatedTorsions>  (49) 


>  <Gold.Protein.RotatedWaterAtoms>  (49) 


>  <Gold.Version>  (49) 
5.3.0

>  <PLP.Chemscore.CHOScore>  (49) 


>  <PLP.Chemscore.Hbond>  (49) 


>  <PLP.Chemscore.Internal.Correction>  (49) 


>  <PLP.Chemscore.Metal>  (49) 


>  <PLP.Fitness>  (49) 


>  <PLP.PLP>  (49) 


>  <PLP.ligand.clash>  (49) 


>  <PLP.ligand.torsion>  (49) 


>  <PLP.part.buried>  (49) 


>  <PLP.part.hbond>  (49) 


>  <PLP.part.metal>  (49) 


>  <PLP.part.nonpolar>  (49) 


>  <PLP.part.repulsive>  (49) 


>  <Version>  (49) 


$$$$
49|Compound_23|Compounds_3D_F|sdf|9|dock4|1
     RDKit          3D

 11 10  0  0  0  0  0  0  0  0999 V2000
   -5.8942  -14.9894    9.4015 O   0  0  0  0  0  0  0  0  0  0  0  0
   -6.5586  -15.5113   10.4435 C   0  0  0  0  0  0  0  0  0  0  0  0
   -5.9550  -16.0838   11.3207 O   0  0  0  0  0  0  0  0  0  0  0  0
   -8.0584  -15.3850   10.5209 C   0  0  0  0  0  0  0  0  0  0  0  0
   -8.4273  -13.9676   10.5549 N   0  0  0  0  0  0  0  0  0  0  0  0
   -7.9852  -13.1799   11.5557 C   0  0  0  0  0  0  0  0  0  0  0  0
   -7.2815  -13.6444   12.4268 O   0  0  0  0  0  0  0  0  0  0  0  0
   -8.3804  -11.6611   11.5917 B   0  0  0  0  0  0  0  0  0  0  0  0
   -8.5634  -16.0735   11.7903 C   0  0  0  0  0  0  0  0  0  0  0  0
   -8.6907  -16.0478    9.2949 C   0  0  0  0  0  0  0  0  0  0  0  0
   -9.9868  -15.4910    9.0691 O   0  0  0  0  0  0  0  0  0  0  0  0
  1  2  1  0
  2  3  2  0
  2  4  1  0
  4  5  1  0
  4  9  1  0
  4 10  1  0
  5  6  1  0
  6  7  2  0
  6  8  1  0
 10 11  1  0
M  END
>  <Gold.Gold.Protein.RotatedWaterAtoms>  (50) 


>  <Gold.Id.Protein>  (50) 


>  <Gold.PLP.Chemscore.CHOScore>  (50) 
0.0000

>  <Gold.PLP.Chemscore.Hbond>  (50) 
2.9987

>  <Gold.PLP.Chemscore.Internal.Correction>  (50) 
0.0006

>  <Gold.PLP.Chemscore.Metal>  (50) 
0.0000

>  <Gold.PLP.Fitness>  (50) 
31.7451

>  <Gold.PLP.PLP>  (50) 
-23.4842

>  <Gold.PLP.ligand.clash>  (50) 
0.0000

>  <Gold.PLP.ligand.torsion>  (50) 
0.3679

>  <Gold.PLP.part.buried>  (50) 
-5.1318

>  <Gold.PLP.part.hbond>  (50) 
-5.0000

>  <Gold.PLP.part.metal>  (50) 
0.0000

>  <Gold.PLP.part.nonpolar>  (50) 
-13.9075

>  <Gold.PLP.part.repulsive>  (50) 
0.3202

>  <Gold.Protein.RotatedAtoms>  (50) 


>  <Gold.Protein.RotatedTorsions>  (50) 


>  <Gold.Protein.RotatedWaterAtoms>  (50) 


>  <Gold.Version>  (50) 
5.3.0

>  <PLP.Chemscore.CHOScore>  (50) 


>  <PLP.Chemscore.Hbond>  (50) 


>  <PLP.Chemscore.Internal.Correction>  (50) 


>  <PLP.Chemscore.Metal>  (50) 


>  <PLP.Fitness>  (50) 


>  <PLP.PLP>  (50) 


>  <PLP.ligand.clash>  (50) 


>  <PLP.ligand.torsion>  (50) 


>  <PLP.part.buried>  (50) 


>  <PLP.part.hbond>  (50) 


>  <PLP.part.metal>  (50) 


>  <PLP.part.nonpolar>  (50) 


>  <PLP.part.repulsive>  (50) 


>  <Version>  (50) 


$$$$
50|Compound_23|Compounds_3D_F|sdf|9|dock5|1
     RDKit          3D

 11 10  0  0  0  0  0  0  0  0999 V2000
   -9.0062  -14.9658   11.8371 O   0  0  0  0  0  0  0  0  0  0  0  0
   -8.0480  -15.1150   10.9102 C   0  0  0  0  0  0  0  0  0  0  0  0
   -8.3432  -15.1808    9.7397 O   0  0  0  0  0  0  0  0  0  0  0  0
   -6.6023  -15.2013   11.3275 C   0  0  0  0  0  0  0  0  0  0  0  0
   -5.7540  -15.2728   10.1353 N   0  0  0  0  0  0  0  0  0  0  0  0
   -5.8747  -16.3106    9.2834 C   0  0  0  0  0  0  0  0  0  0  0  0
   -6.6861  -17.1841    9.5035 O   0  0  0  0  0  0  0  0  0  0  0  0
   -4.9657  -16.3868    8.0058 B   0  0  0  0  0  0  0  0  0  0  0  0
   -6.3913  -16.4547   12.1789 C   0  0  0  0  0  0  0  0  0  0  0  0
   -6.2317  -13.9613   12.1442 C   0  0  0  0  0  0  0  0  0  0  0  0
   -4.8096  -13.8351   12.1978 O   0  0  0  0  0  0  0  0  0  0  0  0
  1  2  1  0
  2  3  2  0
  2  4  1  0
  4  5  1  0
  4  9  1  0
  4 10  1  0
  5  6  1  0
  6  7  2  0
  6  8  1  0
 10 11  1  0
M  END
>  <Gold.Gold.Protein.RotatedWaterAtoms>  (51) 


>  <Gold.Id.Protein>  (51) 


>  <Gold.PLP.Chemscore.CHOScore>  (51) 
0.0000

>  <Gold.PLP.Chemscore.Hbond>  (51) 
2.8500

>  <Gold.PLP.Chemscore.Internal.Correction>  (51) 
0.0003

>  <Gold.PLP.Chemscore.Metal>  (51) 
0.0000

>  <Gold.PLP.Fitness>  (51) 
30.2218

>  <Gold.PLP.PLP>  (51) 
-22.1948

>  <Gold.PLP.ligand.clash>  (51) 
0.0000

>  <Gold.PLP.ligand.torsion>  (51) 
0.2617

>  <Gold.PLP.part.buried>  (51) 
-5.2876

>  <Gold.PLP.part.hbond>  (51) 
-4.0000

>  <Gold.PLP.part.metal>  (51) 
0.0000

>  <Gold.PLP.part.nonpolar>  (51) 
-13.8234

>  <Gold.PLP.part.repulsive>  (51) 
0.3907

>  <Gold.Protein.RotatedAtoms>  (51) 


>  <Gold.Protein.RotatedTorsions>  (51) 


>  <Gold.Protein.RotatedWaterAtoms>  (51) 


>  <Gold.Version>  (51) 
5.3.0

>  <PLP.Chemscore.CHOScore>  (51) 


>  <PLP.Chemscore.Hbond>  (51) 


>  <PLP.Chemscore.Internal.Correction>  (51) 


>  <PLP.Chemscore.Metal>  (51) 


>  <PLP.Fitness>  (51) 


>  <PLP.PLP>  (51) 


>  <PLP.ligand.clash>  (51) 


>  <PLP.ligand.torsion>  (51) 


>  <PLP.part.buried>  (51) 


>  <PLP.part.hbond>  (51) 


>  <PLP.part.metal>  (51) 


>  <PLP.part.nonpolar>  (51) 


>  <PLP.part.repulsive>  (51) 


>  <Version>  (51) 


$$$$
51|Compound_23|Compounds_3D_F|sdf|9|dock6|1
     RDKit          3D

 11 10  0  0  0  0  0  0  0  0999 V2000
   -2.8447  -16.3585   10.0116 O   0  0  0  0  0  0  0  0  0  0  0  0
   -3.5746  -16.8966   11.0003 C   0  0  0  0  0  0  0  0  0  0  0  0
   -3.2040  -17.9114   11.5427 O   0  0  0  0  0  0  0  0  0  0  0  0
   -4.8579  -16.2365   11.4350 C   0  0  0  0  0  0  0  0  0  0  0  0
   -4.5855  -14.8512   11.8262 N   0  0  0  0  0  0  0  0  0  0  0  0
   -5.5991  -14.0446   12.1998 C   0  0  0  0  0  0  0  0  0  0  0  0
   -6.7357  -14.4661   12.2130 O   0  0  0  0  0  0  0  0  0  0  0  0
   -5.3068  -12.5604   12.6191 B   0  0  0  0  0  0  0  0  0  0  0  0
   -5.4443  -16.9965   12.6262 C   0  0  0  0  0  0  0  0  0  0  0  0
   -5.8582  -16.2526   10.2769 C   0  0  0  0  0  0  0  0  0  0  0  0
   -5.2779  -15.6133    9.1387 O   0  0  0  0  0  0  0  0  0  0  0  0
  1  2  1  0
  2  3  2  0
  2  4  1  0
  4  5  1  0
  4  9  1  0
  4 10  1  0
  5  6  1  0
  6  7  2  0
  6  8  1  0
 10 11  1  0
M  END
>  <Gold.Gold.Protein.RotatedWaterAtoms>  (52) 


>  <Gold.Id.Protein>  (52) 


>  <Gold.PLP.Chemscore.CHOScore>  (52) 
0.0000

>  <Gold.PLP.Chemscore.Hbond>  (52) 
3.7393

>  <Gold.PLP.Chemscore.Internal.Correction>  (52) 
0.0003

>  <Gold.PLP.Chemscore.Metal>  (52) 
0.0000

>  <Gold.PLP.Fitness>  (52) 
37.0411

>  <Gold.PLP.PLP>  (52) 
-25.9409

>  <Gold.PLP.ligand.clash>  (52) 
0.0000

>  <Gold.PLP.ligand.torsion>  (52) 
0.0589

>  <Gold.PLP.part.buried>  (52) 
-4.3616

>  <Gold.PLP.part.hbond>  (52) 
-4.7071

>  <Gold.PLP.part.metal>  (52) 
0.0000

>  <Gold.PLP.part.nonpolar>  (52) 
-18.6025

>  <Gold.PLP.part.repulsive>  (52) 
0.3218

>  <Gold.Protein.RotatedAtoms>  (52) 


>  <Gold.Protein.RotatedTorsions>  (52) 


>  <Gold.Protein.RotatedWaterAtoms>  (52) 


>  <Gold.Version>  (52) 
5.3.0

>  <PLP.Chemscore.CHOScore>  (52) 


>  <PLP.Chemscore.Hbond>  (52) 


>  <PLP.Chemscore.Internal.Correction>  (52) 


>  <PLP.Chemscore.Metal>  (52) 


>  <PLP.Fitness>  (52) 


>  <PLP.PLP>  (52) 


>  <PLP.ligand.clash>  (52) 


>  <PLP.ligand.torsion>  (52) 


>  <PLP.part.buried>  (52) 


>  <PLP.part.hbond>  (52) 


>  <PLP.part.metal>  (52) 


>  <PLP.part.nonpolar>  (52) 


>  <PLP.part.repulsive>  (52) 


>  <Version>  (52) 


$$$$
52|Compound_23|Compounds_3D_F|sdf|9|dock7|1
     RDKit          3D

 11 10  0  0  0  0  0  0  0  0999 V2000
   -9.9359  -13.6947   11.8583 O   0  0  0  0  0  0  0  0  0  0  0  0
   -8.6200  -13.9530   11.8237 C   0  0  0  0  0  0  0  0  0  0  0  0
   -7.8449  -13.2245   12.3981 O   0  0  0  0  0  0  0  0  0  0  0  0
   -8.1067  -15.1516   11.0677 C   0  0  0  0  0  0  0  0  0  0  0  0
   -8.4284  -15.0058    9.6459 N   0  0  0  0  0  0  0  0  0  0  0  0
   -8.0484  -15.9557    8.7680 C   0  0  0  0  0  0  0  0  0  0  0  0
   -7.4415  -16.9311    9.1555 O   0  0  0  0  0  0  0  0  0  0  0  0
   -8.3934  -15.7993    7.2446 B   0  0  0  0  0  0  0  0  0  0  0  0
   -8.7674  -16.4193   11.6122 C   0  0  0  0  0  0  0  0  0  0  0  0
   -6.5894  -15.2526   11.2400 C   0  0  0  0  0  0  0  0  0  0  0  0
   -5.9748  -14.0605   10.7480 O   0  0  0  0  0  0  0  0  0  0  0  0
  1  2  1  0
  2  3  2  0
  2  4  1  0
  4  5  1  0
  4  9  1  0
  4 10  1  0
  5  6  1  0
  6  7  2  0
  6  8  1  0
 10 11  1  0
M  END
>  <Gold.Gold.Protein.RotatedWaterAtoms>  (53) 


>  <Gold.Id.Protein>  (53) 


>  <Gold.PLP.Chemscore.CHOScore>  (53) 
0.0000

>  <Gold.PLP.Chemscore.Hbond>  (53) 
3.0000

>  <Gold.PLP.Chemscore.Internal.Correction>  (53) 
0.0003

>  <Gold.PLP.Chemscore.Metal>  (53) 
0.0000

>  <Gold.PLP.Fitness>  (53) 
32.3860

>  <Gold.PLP.PLP>  (53) 
-23.4342

>  <Gold.PLP.ligand.clash>  (53) 
0.0000

>  <Gold.PLP.ligand.torsion>  (53) 
0.0242

>  <Gold.PLP.part.buried>  (53) 
-4.3633

>  <Gold.PLP.part.hbond>  (53) 
-4.0000

>  <Gold.PLP.part.metal>  (53) 
0.0000

>  <Gold.PLP.part.nonpolar>  (53) 
-14.7449

>  <Gold.PLP.part.repulsive>  (53) 
0.2166

>  <Gold.Protein.RotatedAtoms>  (53) 


>  <Gold.Protein.RotatedTorsions>  (53) 


>  <Gold.Protein.RotatedWaterAtoms>  (53) 


>  <Gold.Version>  (53) 
5.3.0

>  <PLP.Chemscore.CHOScore>  (53) 


>  <PLP.Chemscore.Hbond>  (53) 


>  <PLP.Chemscore.Internal.Correction>  (53) 


>  <PLP.Chemscore.Metal>  (53) 


>  <PLP.Fitness>  (53) 


>  <PLP.PLP>  (53) 


>  <PLP.ligand.clash>  (53) 


>  <PLP.ligand.torsion>  (53) 


>  <PLP.part.buried>  (53) 


>  <PLP.part.hbond>  (53) 


>  <PLP.part.metal>  (53) 


>  <PLP.part.nonpolar>  (53) 


>  <PLP.part.repulsive>  (53) 


>  <Version>  (53) 


$$$$
53|Compound_23|Compounds_3D_F|sdf|9|dock8|1
     RDKit          3D

 11 10  0  0  0  0  0  0  0  0999 V2000
   -3.2403  -16.0918   11.3684 O   0  0  0  0  0  0  0  0  0  0  0  0
   -4.4909  -16.5667   11.2679 C   0  0  0  0  0  0  0  0  0  0  0  0
   -4.6769  -17.7235   10.9701 O   0  0  0  0  0  0  0  0  0  0  0  0
   -5.6653  -15.6579   11.5255 C   0  0  0  0  0  0  0  0  0  0  0  0
   -5.1795  -14.3267   11.8973 N   0  0  0  0  0  0  0  0  0  0  0  0
   -6.0562  -13.3268   12.1185 C   0  0  0  0  0  0  0  0  0  0  0  0
   -7.2466  -13.5295   12.0108 O   0  0  0  0  0  0  0  0  0  0  0  0
   -5.5353  -11.9006   12.5171 B   0  0  0  0  0  0  0  0  0  0  0  0
   -6.5112  -16.2283   12.6654 C   0  0  0  0  0  0  0  0  0  0  0  0
   -6.5185  -15.5546   10.2592 C   0  0  0  0  0  0  0  0  0  0  0  0
   -5.7200  -15.0487    9.1881 O   0  0  0  0  0  0  0  0  0  0  0  0
  1  2  1  0
  2  3  2  0
  2  4  1  0
  4  5  1  0
  4  9  1  0
  4 10  1  0
  5  6  1  0
  6  7  2  0
  6  8  1  0
 10 11  1  0
M  END
>  <Gold.Gold.Protein.RotatedWaterAtoms>  (54) 


>  <Gold.Id.Protein>  (54) 


>  <Gold.PLP.Chemscore.CHOScore>  (54) 
0.0000

>  <Gold.PLP.Chemscore.Hbond>  (54) 
2.0647

>  <Gold.PLP.Chemscore.Internal.Correction>  (54) 
0.0003

>  <Gold.PLP.Chemscore.Metal>  (54) 
0.0000

>  <Gold.PLP.Fitness>  (54) 
33.2624

>  <Gold.PLP.PLP>  (54) 
-27.1073

>  <Gold.PLP.ligand.clash>  (54) 
0.0000

>  <Gold.PLP.ligand.torsion>  (54) 
0.0196

>  <Gold.PLP.part.buried>  (54) 
-4.7631

>  <Gold.PLP.part.hbond>  (54) 
-6.1257

>  <Gold.PLP.part.metal>  (54) 
0.0000

>  <Gold.PLP.part.nonpolar>  (54) 
-17.7595

>  <Gold.PLP.part.repulsive>  (54) 
0.2433

>  <Gold.Protein.RotatedAtoms>  (54) 


>  <Gold.Protein.RotatedTorsions>  (54) 


>  <Gold.Protein.RotatedWaterAtoms>  (54) 


>  <Gold.Version>  (54) 
5.3.0

>  <PLP.Chemscore.CHOScore>  (54) 


>  <PLP.Chemscore.Hbond>  (54) 


>  <PLP.Chemscore.Internal.Correction>  (54) 


>  <PLP.Chemscore.Metal>  (54) 


>  <PLP.Fitness>  (54) 


>  <PLP.PLP>  (54) 


>  <PLP.ligand.clash>  (54) 


>  <PLP.ligand.torsion>  (54) 


>  <PLP.part.buried>  (54) 


>  <PLP.part.hbond>  (54) 


>  <PLP.part.metal>  (54) 


>  <PLP.part.nonpolar>  (54) 


>  <PLP.part.repulsive>  (54) 


>  <Version>  (54) 


$$$$
54|Compound_24|Compounds_3D_F|sdf|10|dock1|1
     RDKit          3D

 10  9  0  0  0  0  0  0  0  0999 V2000
   -4.6283  -12.4353   13.1025 O   0  0  0  0  0  0  0  0  0  0  0  0
   -5.8541  -12.1342   12.6484 C   0  0  0  0  0  0  0  0  0  0  0  0
   -6.1471  -10.9852   12.4134 O   0  0  0  0  0  0  0  0  0  0  0  0
   -6.8676  -13.2286   12.4317 C   0  0  0  0  0  0  0  0  0  0  0  0
   -8.2464  -12.6079   12.1963 C   0  0  0  0  0  0  0  0  0  0  0  0
   -6.4677  -14.0607   11.2117 C   0  0  0  0  0  0  0  0  0  0  0  0
   -5.2338  -14.7952   11.5044 N   0  0  0  0  0  0  0  0  0  0  0  0
   -5.2858  -15.9483   12.2008 C   0  0  0  0  0  0  0  0  0  0  0  0
   -6.3529  -16.3772   12.5843 O   0  0  0  0  0  0  0  0  0  0  0  0
   -3.9640  -16.7350   12.5144 B   0  0  0  0  0  0  0  0  0  0  0  0
  1  2  1  0
  2  3  2  0
  2  4  1  0
  4  5  1  0
  4  6  1  0
  6  7  1  0
  7  8  1  0
  8  9  2  0
  8 10  1  0
M  END
>  <Gold.Gold.Protein.RotatedWaterAtoms>  (55) 


>  <Gold.Id.Protein>  (55) 


>  <Gold.PLP.Chemscore.CHOScore>  (55) 
0.0000

>  <Gold.PLP.Chemscore.Hbond>  (55) 
2.0000

>  <Gold.PLP.Chemscore.Internal.Correction>  (55) 
0.0014

>  <Gold.PLP.Chemscore.Metal>  (55) 
0.0000

>  <Gold.PLP.Fitness>  (55) 
35.7675

>  <Gold.PLP.PLP>  (55) 
-30.6022

>  <Gold.PLP.ligand.clash>  (55) 
0.0000

>  <Gold.PLP.ligand.torsion>  (55) 
0.4180

>  <Gold.PLP.part.buried>  (55) 
-6.5574

>  <Gold.PLP.part.hbond>  (55) 
-3.9934

>  <Gold.PLP.part.metal>  (55) 
0.0000

>  <Gold.PLP.part.nonpolar>  (55) 
-20.6902

>  <Gold.PLP.part.repulsive>  (55) 
0.4425

>  <Gold.Protein.RotatedAtoms>  (55) 


>  <Gold.Protein.RotatedTorsions>  (55) 


>  <Gold.Protein.RotatedWaterAtoms>  (55) 


>  <Gold.Version>  (55) 
5.3.0

>  <PLP.Chemscore.CHOScore>  (55) 


>  <PLP.Chemscore.Hbond>  (55) 


>  <PLP.Chemscore.Internal.Correction>  (55) 


>  <PLP.Chemscore.Metal>  (55) 


>  <PLP.Fitness>  (55) 


>  <PLP.PLP>  (55) 


>  <PLP.ligand.clash>  (55) 


>  <PLP.ligand.torsion>  (55) 


>  <PLP.part.buried>  (55) 


>  <PLP.part.hbond>  (55) 


>  <PLP.part.metal>  (55) 


>  <PLP.part.nonpolar>  (55) 


>  <PLP.part.repulsive>  (55) 


>  <Version>  (55) 


$$$$
55|Compound_24|Compounds_3D_F|sdf|10|dock2|1
     RDKit          3D

 10  9  0  0  0  0  0  0  0  0999 V2000
   -4.6121  -12.4434   13.0305 O   0  0  0  0  0  0  0  0  0  0  0  0
   -5.8228  -12.1348   12.5420 C   0  0  0  0  0  0  0  0  0  0  0  0
   -6.0687  -10.9998   12.2062 O   0  0  0  0  0  0  0  0  0  0  0  0
   -6.8780  -13.2032   12.4122 C   0  0  0  0  0  0  0  0  0  0  0  0
   -8.2439  -12.5479   12.1965 C   0  0  0  0  0  0  0  0  0  0  0  0
   -6.5497  -14.1030   11.2192 C   0  0  0  0  0  0  0  0  0  0  0  0
   -5.3072  -14.8331   11.4852 N   0  0  0  0  0  0  0  0  0  0  0  0
   -5.3345  -15.9640   12.2183 C   0  0  0  0  0  0  0  0  0  0  0  0
   -6.3867  -16.3768   12.6569 O   0  0  0  0  0  0  0  0  0  0  0  0
   -4.0034  -16.7460   12.5033 B   0  0  0  0  0  0  0  0  0  0  0  0
  1  2  1  0
  2  3  2  0
  2  4  1  0
  4  5  1  0
  4  6  1  0
  6  7  1  0
  7  8  1  0
  8  9  2  0
  8 10  1  0
M  END
>  <Gold.Gold.Protein.RotatedWaterAtoms>  (56) 


>  <Gold.Id.Protein>  (56) 


>  <Gold.PLP.Chemscore.CHOScore>  (56) 
0.0000

>  <Gold.PLP.Chemscore.Hbond>  (56) 
2.0000

>  <Gold.PLP.Chemscore.Internal.Correction>  (56) 
0.0014

>  <Gold.PLP.Chemscore.Metal>  (56) 
0.0000

>  <Gold.PLP.Fitness>  (56) 
36.2775

>  <Gold.PLP.PLP>  (56) 
-31.3716

>  <Gold.PLP.ligand.clash>  (56) 
0.0000

>  <Gold.PLP.ligand.torsion>  (56) 
0.5477

>  <Gold.PLP.part.buried>  (56) 
-7.2540

>  <Gold.PLP.part.hbond>  (56) 
-3.7491

>  <Gold.PLP.part.metal>  (56) 
0.0000

>  <Gold.PLP.part.nonpolar>  (56) 
-20.6297

>  <Gold.PLP.part.repulsive>  (56) 
0.4401

>  <Gold.Protein.RotatedAtoms>  (56) 


>  <Gold.Protein.RotatedTorsions>  (56) 


>  <Gold.Protein.RotatedWaterAtoms>  (56) 


>  <Gold.Version>  (56) 
5.3.0

>  <PLP.Chemscore.CHOScore>  (56) 


>  <PLP.Chemscore.Hbond>  (56) 


>  <PLP.Chemscore.Internal.Correction>  (56) 


>  <PLP.Chemscore.Metal>  (56) 


>  <PLP.Fitness>  (56) 


>  <PLP.PLP>  (56) 


>  <PLP.ligand.clash>  (56) 


>  <PLP.ligand.torsion>  (56) 


>  <PLP.part.buried>  (56) 


>  <PLP.part.hbond>  (56) 


>  <PLP.part.metal>  (56) 


>  <PLP.part.nonpolar>  (56) 


>  <PLP.part.repulsive>  (56) 


>  <Version>  (56) 


$$$$
56|Compound_24|Compounds_3D_F|sdf|10|dock3|1
     RDKit          3D

 10  9  0  0  0  0  0  0  0  0999 V2000
   -9.0697  -14.8373   10.0870 O   0  0  0  0  0  0  0  0  0  0  0  0
   -8.1153  -14.9396   11.0243 C   0  0  0  0  0  0  0  0  0  0  0  0
   -7.9856  -15.9680   11.6462 O   0  0  0  0  0  0  0  0  0  0  0  0
   -7.2044  -13.7716   11.3031 C   0  0  0  0  0  0  0  0  0  0  0  0
   -8.0415  -12.5586   11.7151 C   0  0  0  0  0  0  0  0  0  0  0  0
   -6.2405  -14.1344   12.4345 C   0  0  0  0  0  0  0  0  0  0  0  0
   -5.0448  -14.7690   11.8730 N   0  0  0  0  0  0  0  0  0  0  0  0
   -4.7962  -16.0712   12.1169 C   0  0  0  0  0  0  0  0  0  0  0  0
   -5.5619  -16.7169   12.8001 O   0  0  0  0  0  0  0  0  0  0  0  0
   -3.5153  -16.7510   11.5154 B   0  0  0  0  0  0  0  0  0  0  0  0
  1  2  1  0
  2  3  2  0
  2  4  1  0
  4  5  1  0
  4  6  1  0
  6  7  1  0
  7  8  1  0
  8  9  2  0
  8 10  1  0
M  END
>  <Gold.Gold.Protein.RotatedWaterAtoms>  (57) 


>  <Gold.Id.Protein>  (57) 


>  <Gold.PLP.Chemscore.CHOScore>  (57) 
0.0000

>  <Gold.PLP.Chemscore.Hbond>  (57) 
1.9120

>  <Gold.PLP.Chemscore.Internal.Correction>  (57) 
0.0014

>  <Gold.PLP.Chemscore.Metal>  (57) 
0.0000

>  <Gold.PLP.Fitness>  (57) 
32.8012

>  <Gold.PLP.PLP>  (57) 
-27.8159

>  <Gold.PLP.ligand.clash>  (57) 
0.0000

>  <Gold.PLP.ligand.torsion>  (57) 
0.3760

>  <Gold.PLP.part.buried>  (57) 
-6.2157

>  <Gold.PLP.part.hbond>  (57) 
-3.1224

>  <Gold.PLP.part.metal>  (57) 
0.0000

>  <Gold.PLP.part.nonpolar>  (57) 
-18.5225

>  <Gold.PLP.part.repulsive>  (57) 
0.1876

>  <Gold.Protein.RotatedAtoms>  (57) 


>  <Gold.Protein.RotatedTorsions>  (57) 


>  <Gold.Protein.RotatedWaterAtoms>  (57) 


>  <Gold.Version>  (57) 
5.3.0

>  <PLP.Chemscore.CHOScore>  (57) 


>  <PLP.Chemscore.Hbond>  (57) 


>  <PLP.Chemscore.Internal.Correction>  (57) 


>  <PLP.Chemscore.Metal>  (57) 


>  <PLP.Fitness>  (57) 


>  <PLP.PLP>  (57) 


>  <PLP.ligand.clash>  (57) 


>  <PLP.ligand.torsion>  (57) 


>  <PLP.part.buried>  (57) 


>  <PLP.part.hbond>  (57) 


>  <PLP.part.metal>  (57) 


>  <PLP.part.nonpolar>  (57) 


>  <PLP.part.repulsive>  (57) 


>  <Version>  (57) 


$$$$
57|Compound_24|Compounds_3D_F|sdf|10|dock4|1
     RDKit          3D

 10  9  0  0  0  0  0  0  0  0999 V2000
   -9.4376  -13.6906   11.7886 O   0  0  0  0  0  0  0  0  0  0  0  0
   -8.2827  -14.3668   11.8808 C   0  0  0  0  0  0  0  0  0  0  0  0
   -8.2924  -15.5507   12.1254 O   0  0  0  0  0  0  0  0  0  0  0  0
   -6.9718  -13.6507   11.6802 C   0  0  0  0  0  0  0  0  0  0  0  0
   -7.1623  -12.1549   11.9413 C   0  0  0  0  0  0  0  0  0  0  0  0
   -5.9305  -14.2096   12.6519 C   0  0  0  0  0  0  0  0  0  0  0  0
   -4.8870  -14.9111   11.8993 N   0  0  0  0  0  0  0  0  0  0  0  0
   -4.7248  -16.2406   12.0524 C   0  0  0  0  0  0  0  0  0  0  0  0
   -5.4424  -16.8552   12.8121 O   0  0  0  0  0  0  0  0  0  0  0  0
   -3.6069  -16.9921   11.2462 B   0  0  0  0  0  0  0  0  0  0  0  0
  1  2  1  0
  2  3  2  0
  2  4  1  0
  4  5  1  0
  4  6  1  0
  6  7  1  0
  7  8  1  0
  8  9  2  0
  8 10  1  0
M  END
>  <Gold.Gold.Protein.RotatedWaterAtoms>  (58) 


>  <Gold.Id.Protein>  (58) 


>  <Gold.PLP.Chemscore.CHOScore>  (58) 
0.0000

>  <Gold.PLP.Chemscore.Hbond>  (58) 
2.0000

>  <Gold.PLP.Chemscore.Internal.Correction>  (58) 
0.0011

>  <Gold.PLP.Chemscore.Metal>  (58) 
0.0000

>  <Gold.PLP.Fitness>  (58) 
32.3758

>  <Gold.PLP.PLP>  (58) 
-29.1490

>  <Gold.PLP.ligand.clash>  (58) 
0.0242

>  <Gold.PLP.ligand.torsion>  (58) 
1.3750

>  <Gold.PLP.part.buried>  (58) 
-7.3991

>  <Gold.PLP.part.hbond>  (58) 
-2.4444

>  <Gold.PLP.part.metal>  (58) 
0.0000

>  <Gold.PLP.part.nonpolar>  (58) 
-19.8778

>  <Gold.PLP.part.repulsive>  (58) 
0.2209

>  <Gold.Protein.RotatedAtoms>  (58) 


>  <Gold.Protein.RotatedTorsions>  (58) 


>  <Gold.Protein.RotatedWaterAtoms>  (58) 


>  <Gold.Version>  (58) 
5.3.0

>  <PLP.Chemscore.CHOScore>  (58) 


>  <PLP.Chemscore.Hbond>  (58) 


>  <PLP.Chemscore.Internal.Correction>  (58) 


>  <PLP.Chemscore.Metal>  (58) 


>  <PLP.Fitness>  (58) 


>  <PLP.PLP>  (58) 


>  <PLP.ligand.clash>  (58) 


>  <PLP.ligand.torsion>  (58) 


>  <PLP.part.buried>  (58) 


>  <PLP.part.hbond>  (58) 


>  <PLP.part.metal>  (58) 


>  <PLP.part.nonpolar>  (58) 


>  <PLP.part.repulsive>  (58) 


>  <Version>  (58) 


$$$$
58|Compound_24|Compounds_3D_F|sdf|10|dock5|1
     RDKit          3D

 10  9  0  0  0  0  0  0  0  0999 V2000
   -4.5896  -12.3689   13.1841 O   0  0  0  0  0  0  0  0  0  0  0  0
   -5.7666  -12.3652   12.5404 C   0  0  0  0  0  0  0  0  0  0  0  0
   -6.1030  -11.3968   11.8997 O   0  0  0  0  0  0  0  0  0  0  0  0
   -6.6710  -13.5685   12.6162 C   0  0  0  0  0  0  0  0  0  0  0  0
   -7.8520  -13.3802   11.6614 C   0  0  0  0  0  0  0  0  0  0  0  0
   -5.8883  -14.8215   12.2186 C   0  0  0  0  0  0  0  0  0  0  0  0
   -5.6292  -14.7987   10.7764 N   0  0  0  0  0  0  0  0  0  0  0  0
   -6.4000  -15.5248    9.9423 C   0  0  0  0  0  0  0  0  0  0  0  0
   -7.3072  -16.1960   10.3853 O   0  0  0  0  0  0  0  0  0  0  0  0
   -6.1223  -15.5003    8.3973 B   0  0  0  0  0  0  0  0  0  0  0  0
  1  2  1  0
  2  3  2  0
  2  4  1  0
  4  5  1  0
  4  6  1  0
  6  7  1  0
  7  8  1  0
  8  9  2  0
  8 10  1  0
M  END
>  <Gold.Gold.Protein.RotatedWaterAtoms>  (59) 


>  <Gold.Id.Protein>  (59) 


>  <Gold.PLP.Chemscore.CHOScore>  (59) 
0.0000

>  <Gold.PLP.Chemscore.Hbond>  (59) 
2.0000

>  <Gold.PLP.Chemscore.Internal.Correction>  (59) 
0.0011

>  <Gold.PLP.Chemscore.Metal>  (59) 
0.0000

>  <Gold.PLP.Fitness>  (59) 
34.6748

>  <Gold.PLP.PLP>  (59) 
-29.2930

>  <Gold.PLP.ligand.clash>  (59) 
0.0000

>  <Gold.PLP.ligand.torsion>  (59) 
0.3097

>  <Gold.PLP.part.buried>  (59) 
-5.9459

>  <Gold.PLP.part.hbond>  (59) 
-4.3465

>  <Gold.PLP.part.metal>  (59) 
0.0000

>  <Gold.PLP.part.nonpolar>  (59) 
-19.5328

>  <Gold.PLP.part.repulsive>  (59) 
0.5685

>  <Gold.Protein.RotatedAtoms>  (59) 


>  <Gold.Protein.RotatedTorsions>  (59) 


>  <Gold.Protein.RotatedWaterAtoms>  (59) 


>  <Gold.Version>  (59) 
5.3.0

>  <PLP.Chemscore.CHOScore>  (59) 


>  <PLP.Chemscore.Hbond>  (59) 


>  <PLP.Chemscore.Internal.Correction>  (59) 


>  <PLP.Chemscore.Metal>  (59) 


>  <PLP.Fitness>  (59) 


>  <PLP.PLP>  (59) 


>  <PLP.ligand.clash>  (59) 


>  <PLP.ligand.torsion>  (59) 


>  <PLP.part.buried>  (59) 


>  <PLP.part.hbond>  (59) 


>  <PLP.part.metal>  (59) 


>  <PLP.part.nonpolar>  (59) 


>  <PLP.part.repulsive>  (59) 


>  <Version>  (59) 


$$$$
59|Compound_24|Compounds_3D_F|sdf|10|dock6|1
     RDKit          3D

 10  9  0  0  0  0  0  0  0  0999 V2000
   -9.8671  -14.3674   12.6644 O   0  0  0  0  0  0  0  0  0  0  0  0
   -8.7745  -14.5068   11.8987 C   0  0  0  0  0  0  0  0  0  0  0  0
   -8.8877  -14.7784   10.7262 O   0  0  0  0  0  0  0  0  0  0  0  0
   -7.4044  -14.3257   12.5002 C   0  0  0  0  0  0  0  0  0  0  0  0
   -6.6037  -15.6205   12.3447 C   0  0  0  0  0  0  0  0  0  0  0  0
   -6.6777  -13.1871   11.7818 C   0  0  0  0  0  0  0  0  0  0  0  0
   -7.5393  -12.0022   11.7476 N   0  0  0  0  0  0  0  0  0  0  0  0
   -7.0081  -10.7777   11.9364 C   0  0  0  0  0  0  0  0  0  0  0  0
   -5.8180  -10.6572   12.1339 O   0  0  0  0  0  0  0  0  0  0  0  0
   -7.9312   -9.5085   11.8998 B   0  0  0  0  0  0  0  0  0  0  0  0
  1  2  1  0
  2  3  2  0
  2  4  1  0
  4  5  1  0
  4  6  1  0
  6  7  1  0
  7  8  1  0
  8  9  2  0
  8 10  1  0
M  END
>  <Gold.Gold.Protein.RotatedWaterAtoms>  (60) 


>  <Gold.Id.Protein>  (60) 


>  <Gold.PLP.Chemscore.CHOScore>  (60) 
0.0000

>  <Gold.PLP.Chemscore.Hbond>  (60) 
1.0000

>  <Gold.PLP.Chemscore.Internal.Correction>  (60) 
0.0011

>  <Gold.PLP.Chemscore.Metal>  (60) 
0.0000

>  <Gold.PLP.Fitness>  (60) 
35.0542

>  <Gold.PLP.PLP>  (60) 
-32.4238

>  <Gold.PLP.ligand.clash>  (60) 
0.0000

>  <Gold.PLP.ligand.torsion>  (60) 
0.1853

>  <Gold.PLP.part.buried>  (60) 
-5.7125

>  <Gold.PLP.part.hbond>  (60) 
-3.4172

>  <Gold.PLP.part.metal>  (60) 
0.0000

>  <Gold.PLP.part.nonpolar>  (60) 
-23.9781

>  <Gold.PLP.part.repulsive>  (60) 
0.5940

>  <Gold.Protein.RotatedAtoms>  (60) 


>  <Gold.Protein.RotatedTorsions>  (60) 


>  <Gold.Protein.RotatedWaterAtoms>  (60) 


>  <Gold.Version>  (60) 
5.3.0

>  <PLP.Chemscore.CHOScore>  (60) 


>  <PLP.Chemscore.Hbond>  (60) 


>  <PLP.Chemscore.Internal.Correction>  (60) 


>  <PLP.Chemscore.Metal>  (60) 


>  <PLP.Fitness>  (60) 


>  <PLP.PLP>  (60) 


>  <PLP.ligand.clash>  (60) 


>  <PLP.ligand.torsion>  (60) 


>  <PLP.part.buried>  (60) 


>  <PLP.part.hbond>  (60) 


>  <PLP.part.metal>  (60) 


>  <PLP.part.nonpolar>  (60) 


>  <PLP.part.repulsive>  (60) 


>  <Version>  (60) 


$$$$
60|Compound_24|Compounds_3D_F|sdf|10|dock7|1
     RDKit          3D

 10  9  0  0  0  0  0  0  0  0999 V2000
   -9.2119  -13.9676   10.4449 O   0  0  0  0  0  0  0  0  0  0  0  0
   -8.4868  -13.7235   11.5468 C   0  0  0  0  0  0  0  0  0  0  0  0
   -9.0393  -13.5335   12.6051 O   0  0  0  0  0  0  0  0  0  0  0  0
   -6.9823  -13.6850   11.4659 C   0  0  0  0  0  0  0  0  0  0  0  0
   -6.4655  -12.4262   12.1660 C   0  0  0  0  0  0  0  0  0  0  0  0
   -6.4021  -14.9242   12.1505 C   0  0  0  0  0  0  0  0  0  0  0  0
   -5.1871  -15.3465   11.4484 N   0  0  0  0  0  0  0  0  0  0  0  0
   -4.6489  -16.5562   11.7020 C   0  0  0  0  0  0  0  0  0  0  0  0
   -5.1703  -17.2941   12.5104 O   0  0  0  0  0  0  0  0  0  0  0  0
   -3.3474  -17.0085   10.9498 B   0  0  0  0  0  0  0  0  0  0  0  0
  1  2  1  0
  2  3  2  0
  2  4  1  0
  4  5  1  0
  4  6  1  0
  6  7  1  0
  7  8  1  0
  8  9  2  0
  8 10  1  0
M  END
>  <Gold.Gold.Protein.RotatedWaterAtoms>  (61) 


>  <Gold.Id.Protein>  (61) 


>  <Gold.PLP.Chemscore.CHOScore>  (61) 
0.0000

>  <Gold.PLP.Chemscore.Hbond>  (61) 
1.9263

>  <Gold.PLP.Chemscore.Internal.Correction>  (61) 
0.0011

>  <Gold.PLP.Chemscore.Metal>  (61) 
0.0000

>  <Gold.PLP.Fitness>  (61) 
31.2246

>  <Gold.PLP.PLP>  (61) 
-26.9995

>  <Gold.PLP.ligand.clash>  (61) 
0.0000

>  <Gold.PLP.ligand.torsion>  (61) 
0.7774

>  <Gold.PLP.part.buried>  (61) 
-5.2185

>  <Gold.PLP.part.hbond>  (61) 
-3.0000

>  <Gold.PLP.part.metal>  (61) 
0.0000

>  <Gold.PLP.part.nonpolar>  (61) 
-18.2949

>  <Gold.PLP.part.repulsive>  (61) 
0.2143

>  <Gold.Protein.RotatedAtoms>  (61) 


>  <Gold.Protein.RotatedTorsions>  (61) 


>  <Gold.Protein.RotatedWaterAtoms>  (61) 


>  <Gold.Version>  (61) 
5.3.0

>  <PLP.Chemscore.CHOScore>  (61) 


>  <PLP.Chemscore.Hbond>  (61) 


>  <PLP.Chemscore.Internal.Correction>  (61) 


>  <PLP.Chemscore.Metal>  (61) 


>  <PLP.Fitness>  (61) 


>  <PLP.PLP>  (61) 


>  <PLP.ligand.clash>  (61) 


>  <PLP.ligand.torsion>  (61) 


>  <PLP.part.buried>  (61) 


>  <PLP.part.hbond>  (61) 


>  <PLP.part.metal>  (61) 


>  <PLP.part.nonpolar>  (61) 


>  <PLP.part.repulsive>  (61) 


>  <Version>  (61) 


$$$$
61|Compound_24|Compounds_3D_F|sdf|10|dock8|1
     RDKit          3D

 10  9  0  0  0  0  0  0  0  0999 V2000
   -4.6072  -12.3947   13.3318 O   0  0  0  0  0  0  0  0  0  0  0  0
   -5.7242  -12.0902   12.6541 C   0  0  0  0  0  0  0  0  0  0  0  0
   -5.9148  -10.9567   12.2795 O   0  0  0  0  0  0  0  0  0  0  0  0
   -6.7429  -13.1613   12.3598 C   0  0  0  0  0  0  0  0  0  0  0  0
   -7.9263  -12.5474   11.6085 C   0  0  0  0  0  0  0  0  0  0  0  0
   -6.1029  -14.2524   11.4993 C   0  0  0  0  0  0  0  0  0  0  0  0
   -7.1520  -15.0938   10.9171 N   0  0  0  0  0  0  0  0  0  0  0  0
   -7.0603  -15.4921    9.6325 C   0  0  0  0  0  0  0  0  0  0  0  0
   -6.1100  -15.1545    8.9597 O   0  0  0  0  0  0  0  0  0  0  0  0
   -8.1843  -16.3934    9.0090 B   0  0  0  0  0  0  0  0  0  0  0  0
  1  2  1  0
  2  3  2  0
  2  4  1  0
  4  5  1  0
  4  6  1  0
  6  7  1  0
  7  8  1  0
  8  9  2  0
  8 10  1  0
M  END
>  <Gold.Gold.Protein.RotatedWaterAtoms>  (62) 


>  <Gold.Id.Protein>  (62) 


>  <Gold.PLP.Chemscore.CHOScore>  (62) 
0.0000

>  <Gold.PLP.Chemscore.Hbond>  (62) 
2.0000

>  <Gold.PLP.Chemscore.Internal.Correction>  (62) 
0.0011

>  <Gold.PLP.Chemscore.Metal>  (62) 
0.0000

>  <Gold.PLP.Fitness>  (62) 
32.8203

>  <Gold.PLP.PLP>  (62) 
-27.3001

>  <Gold.PLP.ligand.clash>  (62) 
0.0069

>  <Gold.PLP.ligand.torsion>  (62) 
0.2370

>  <Gold.PLP.part.buried>  (62) 
-6.8101

>  <Gold.PLP.part.hbond>  (62) 
-4.0000

>  <Gold.PLP.part.metal>  (62) 
0.0000

>  <Gold.PLP.part.nonpolar>  (62) 
-18.0573

>  <Gold.PLP.part.repulsive>  (62) 
0.5602

>  <Gold.Protein.RotatedAtoms>  (62) 


>  <Gold.Protein.RotatedTorsions>  (62) 


>  <Gold.Protein.RotatedWaterAtoms>  (62) 


>  <Gold.Version>  (62) 
5.3.0

>  <PLP.Chemscore.CHOScore>  (62) 


>  <PLP.Chemscore.Hbond>  (62) 


>  <PLP.Chemscore.Internal.Correction>  (62) 


>  <PLP.Chemscore.Metal>  (62) 


>  <PLP.Fitness>  (62) 


>  <PLP.PLP>  (62) 


>  <PLP.ligand.clash>  (62) 


>  <PLP.ligand.torsion>  (62) 


>  <PLP.part.buried>  (62) 


>  <PLP.part.hbond>  (62) 


>  <PLP.part.metal>  (62) 


>  <PLP.part.nonpolar>  (62) 


>  <PLP.part.repulsive>  (62) 


>  <Version>  (62) 


$$$$
62|Compound_24|Compounds_3D_F|sdf|10|dock9|1
     RDKit          3D

 10  9  0  0  0  0  0  0  0  0999 V2000
   -4.8948  -12.5086   13.3655 O   0  0  0  0  0  0  0  0  0  0  0  0
   -5.9604  -12.3738   12.5619 C   0  0  0  0  0  0  0  0  0  0  0  0
   -6.0884  -11.3783   11.8882 O   0  0  0  0  0  0  0  0  0  0  0  0
   -6.9997  -13.4636   12.4989 C   0  0  0  0  0  0  0  0  0  0  0  0
   -8.3953  -12.8367   12.4682 C   0  0  0  0  0  0  0  0  0  0  0  0
   -6.7878  -14.2991   11.2349 C   0  0  0  0  0  0  0  0  0  0  0  0
   -5.4801  -14.9576   11.2979 N   0  0  0  0  0  0  0  0  0  0  0  0
   -5.2884  -15.9949   12.1372 C   0  0  0  0  0  0  0  0  0  0  0  0
   -6.1977  -16.3828   12.8390 O   0  0  0  0  0  0  0  0  0  0  0  0
   -3.8875  -16.7002   12.2048 B   0  0  0  0  0  0  0  0  0  0  0  0
  1  2  1  0
  2  3  2  0
  2  4  1  0
  4  5  1  0
  4  6  1  0
  6  7  1  0
  7  8  1  0
  8  9  2  0
  8 10  1  0
M  END
>  <Gold.Gold.Protein.RotatedWaterAtoms>  (63) 


>  <Gold.Id.Protein>  (63) 


>  <Gold.PLP.Chemscore.CHOScore>  (63) 
0.0000

>  <Gold.PLP.Chemscore.Hbond>  (63) 
1.9913

>  <Gold.PLP.Chemscore.Internal.Correction>  (63) 
0.0007

>  <Gold.PLP.Chemscore.Metal>  (63) 
0.0000

>  <Gold.PLP.Fitness>  (63) 
36.0077

>  <Gold.PLP.PLP>  (63) 
-31.2064

>  <Gold.PLP.ligand.clash>  (63) 
0.0000

>  <Gold.PLP.ligand.torsion>  (63) 
0.5866

>  <Gold.PLP.part.buried>  (63) 
-6.8291

>  <Gold.PLP.part.hbond>  (63) 
-4.3209

>  <Gold.PLP.part.metal>  (63) 
0.0000

>  <Gold.PLP.part.nonpolar>  (63) 
-20.0737

>  <Gold.PLP.part.repulsive>  (63) 
0.4148

>  <Gold.Protein.RotatedAtoms>  (63) 


>  <Gold.Protein.RotatedTorsions>  (63) 


>  <Gold.Protein.RotatedWaterAtoms>  (63) 


>  <Gold.Version>  (63) 
5.3.0

>  <PLP.Chemscore.CHOScore>  (63) 


>  <PLP.Chemscore.Hbond>  (63) 


>  <PLP.Chemscore.Internal.Correction>  (63) 


>  <PLP.Chemscore.Metal>  (63) 


>  <PLP.Fitness>  (63) 


>  <PLP.PLP>  (63) 


>  <PLP.ligand.clash>  (63) 


>  <PLP.ligand.torsion>  (63) 


>  <PLP.part.buried>  (63) 


>  <PLP.part.hbond>  (63) 


>  <PLP.part.metal>  (63) 


>  <PLP.part.nonpolar>  (63) 


>  <PLP.part.repulsive>  (63) 


>  <Version>  (63) 


$$$$
63|Compound_25|Compounds_3D_F|sdf|11|dock1|1
     RDKit          3D

 10  9  0  0  0  0  0  0  0  0999 V2000
   -5.8235  -14.6826   10.7286 O   0  0  0  0  0  0  0  0  0  0  0  0
   -6.9986  -14.9882   10.1581 C   0  0  0  0  0  0  0  0  0  0  0  0
   -7.0297  -15.4151    9.0275 O   0  0  0  0  0  0  0  0  0  0  0  0
   -8.2814  -14.7986   10.9263 C   0  0  0  0  0  0  0  0  0  0  0  0
   -9.3948  -14.9701   10.0463 O   0  0  0  0  0  0  0  0  0  0  0  0
   -8.3576  -15.8315   12.0527 C   0  0  0  0  0  0  0  0  0  0  0  0
   -8.7527  -17.1293   11.4993 N   0  0  0  0  0  0  0  0  0  0  0  0
   -9.9782  -17.6278   11.7566 C   0  0  0  0  0  0  0  0  0  0  0  0
  -10.7534  -17.0014   12.4471 O   0  0  0  0  0  0  0  0  0  0  0  0
  -10.4011  -19.0177   11.1635 B   0  0  0  0  0  0  0  0  0  0  0  0
  1  2  1  0
  2  3  2  0
  2  4  1  0
  4  5  1  0
  4  6  1  0
  6  7  1  0
  7  8  1  0
  8  9  2  0
  8 10  1  0
M  END
>  <Gold.Gold.Protein.RotatedWaterAtoms>  (64) 


>  <Gold.Id.Protein>  (64) 


>  <Gold.PLP.Chemscore.CHOScore>  (64) 
0.0000

>  <Gold.PLP.Chemscore.Hbond>  (64) 
3.9204

>  <Gold.PLP.Chemscore.Internal.Correction>  (64) 
0.0025

>  <Gold.PLP.Chemscore.Metal>  (64) 
0.0000

>  <Gold.PLP.Fitness>  (64) 
30.5638

>  <Gold.PLP.PLP>  (64) 
-19.5694

>  <Gold.PLP.ligand.clash>  (64) 
0.0000

>  <Gold.PLP.ligand.torsion>  (64) 
0.3846

>  <Gold.PLP.part.buried>  (64) 
-4.0874

>  <Gold.PLP.part.hbond>  (64) 
-6.0000

>  <Gold.PLP.part.metal>  (64) 
0.0000

>  <Gold.PLP.part.nonpolar>  (64) 
-11.2882

>  <Gold.PLP.part.repulsive>  (64) 
0.2742

>  <Gold.Protein.RotatedAtoms>  (64) 


>  <Gold.Protein.RotatedTorsions>  (64) 


>  <Gold.Protein.RotatedWaterAtoms>  (64) 


>  <Gold.Version>  (64) 
5.3.0

>  <PLP.Chemscore.CHOScore>  (64) 


>  <PLP.Chemscore.Hbond>  (64) 


>  <PLP.Chemscore.Internal.Correction>  (64) 


>  <PLP.Chemscore.Metal>  (64) 


>  <PLP.Fitness>  (64) 


>  <PLP.PLP>  (64) 


>  <PLP.ligand.clash>  (64) 


>  <PLP.ligand.torsion>  (64) 


>  <PLP.part.buried>  (64) 


>  <PLP.part.hbond>  (64) 


>  <PLP.part.metal>  (64) 


>  <PLP.part.nonpolar>  (64) 


>  <PLP.part.repulsive>  (64) 


>  <Version>  (64) 


$$$$
64|Compound_25|Compounds_3D_F|sdf|11|dock2|1
     RDKit          3D

 10  9  0  0  0  0  0  0  0  0999 V2000
   -4.6759  -12.4124   13.4000 O   0  0  0  0  0  0  0  0  0  0  0  0
   -5.6620  -12.4904   12.4939 C   0  0  0  0  0  0  0  0  0  0  0  0
   -6.0890  -11.4850   11.9760 O   0  0  0  0  0  0  0  0  0  0  0  0
   -6.2390  -13.8320   12.1214 C   0  0  0  0  0  0  0  0  0  0  0  0
   -6.1818  -13.9992   10.7028 O   0  0  0  0  0  0  0  0  0  0  0  0
   -5.4299  -14.9401   12.7988 C   0  0  0  0  0  0  0  0  0  0  0  0
   -4.4239  -15.4512   11.8642 N   0  0  0  0  0  0  0  0  0  0  0  0
   -4.1810  -16.7749   11.7916 C   0  0  0  0  0  0  0  0  0  0  0  0
   -4.7955  -17.5426   12.5010 O   0  0  0  0  0  0  0  0  0  0  0  0
   -3.1037  -17.3219   10.7903 B   0  0  0  0  0  0  0  0  0  0  0  0
  1  2  1  0
  2  3  2  0
  2  4  1  0
  4  5  1  0
  4  6  1  0
  6  7  1  0
  7  8  1  0
  8  9  2  0
  8 10  1  0
M  END
>  <Gold.Gold.Protein.RotatedWaterAtoms>  (65) 


>  <Gold.Id.Protein>  (65) 


>  <Gold.PLP.Chemscore.CHOScore>  (65) 
0.0000

>  <Gold.PLP.Chemscore.Hbond>  (65) 
2.0000

>  <Gold.PLP.Chemscore.Internal.Correction>  (65) 
0.0025

>  <Gold.PLP.Chemscore.Metal>  (65) 
0.0000

>  <Gold.PLP.Fitness>  (65) 
32.4238

>  <Gold.PLP.PLP>  (65) 
-29.4239

>  <Gold.PLP.ligand.clash>  (65) 
1.6096

>  <Gold.PLP.ligand.torsion>  (65) 
0.6965

>  <Gold.PLP.part.buried>  (65) 
-6.0794

>  <Gold.PLP.part.hbond>  (65) 
-6.6359

>  <Gold.PLP.part.metal>  (65) 
0.0000

>  <Gold.PLP.part.nonpolar>  (65) 
-16.4831

>  <Gold.PLP.part.repulsive>  (65) 
0.4260

>  <Gold.Protein.RotatedAtoms>  (65) 


>  <Gold.Protein.RotatedTorsions>  (65) 


>  <Gold.Protein.RotatedWaterAtoms>  (65) 


>  <Gold.Version>  (65) 
5.3.0

>  <PLP.Chemscore.CHOScore>  (65) 


>  <PLP.Chemscore.Hbond>  (65) 


>  <PLP.Chemscore.Internal.Correction>  (65) 


>  <PLP.Chemscore.Metal>  (65) 


>  <PLP.Fitness>  (65) 


>  <PLP.PLP>  (65) 


>  <PLP.ligand.clash>  (65) 


>  <PLP.ligand.torsion>  (65) 


>  <PLP.part.buried>  (65) 


>  <PLP.part.hbond>  (65) 


>  <PLP.part.metal>  (65) 


>  <PLP.part.nonpolar>  (65) 


>  <PLP.part.repulsive>  (65) 


>  <Version>  (65) 


$$$$
65|Compound_25|Compounds_3D_F|sdf|11|dock3|1
     RDKit          3D

 10  9  0  0  0  0  0  0  0  0999 V2000
   -7.8869  -12.5766   12.1848 O   0  0  0  0  0  0  0  0  0  0  0  0
   -6.7135  -11.9266   12.1973 C   0  0  0  0  0  0  0  0  0  0  0  0
   -6.6913  -10.7179   12.2013 O   0  0  0  0  0  0  0  0  0  0  0  0
   -5.4217  -12.7029   12.2054 C   0  0  0  0  0  0  0  0  0  0  0  0
   -4.5695  -12.2010   13.2375 O   0  0  0  0  0  0  0  0  0  0  0  0
   -5.7182  -14.1819   12.4627 C   0  0  0  0  0  0  0  0  0  0  0  0
   -4.6203  -14.9983   11.9387 N   0  0  0  0  0  0  0  0  0  0  0  0
   -4.6051  -16.3284   12.1559 C   0  0  0  0  0  0  0  0  0  0  0  0
   -5.5008  -16.8488   12.7860 O   0  0  0  0  0  0  0  0  0  0  0  0
   -3.4291  -17.2025   11.5942 B   0  0  0  0  0  0  0  0  0  0  0  0
  1  2  1  0
  2  3  2  0
  2  4  1  0
  4  5  1  0
  4  6  1  0
  6  7  1  0
  7  8  1  0
  8  9  2  0
  8 10  1  0
M  END
>  <Gold.Gold.Protein.RotatedWaterAtoms>  (66) 


>  <Gold.Id.Protein>  (66) 


>  <Gold.PLP.Chemscore.CHOScore>  (66) 
0.0000

>  <Gold.PLP.Chemscore.Hbond>  (66) 
2.0000

>  <Gold.PLP.Chemscore.Internal.Correction>  (66) 
0.0006

>  <Gold.PLP.Chemscore.Metal>  (66) 
0.0000

>  <Gold.PLP.Fitness>  (66) 
34.2864

>  <Gold.PLP.PLP>  (66) 
-30.5799

>  <Gold.PLP.ligand.clash>  (66) 
1.3552

>  <Gold.PLP.ligand.torsion>  (66) 
0.4694

>  <Gold.PLP.part.buried>  (66) 
-8.2834

>  <Gold.PLP.part.hbond>  (66) 
-5.0000

>  <Gold.PLP.part.metal>  (66) 
0.0000

>  <Gold.PLP.part.nonpolar>  (66) 
-17.9004

>  <Gold.PLP.part.repulsive>  (66) 
0.4312

>  <Gold.Protein.RotatedAtoms>  (66) 


>  <Gold.Protein.RotatedTorsions>  (66) 


>  <Gold.Protein.RotatedWaterAtoms>  (66) 


>  <Gold.Version>  (66) 
5.3.0

>  <PLP.Chemscore.CHOScore>  (66) 


>  <PLP.Chemscore.Hbond>  (66) 


>  <PLP.Chemscore.Internal.Correction>  (66) 


>  <PLP.Chemscore.Metal>  (66) 


>  <PLP.Fitness>  (66) 


>  <PLP.PLP>  (66) 


>  <PLP.ligand.clash>  (66) 


>  <PLP.ligand.torsion>  (66) 


>  <PLP.part.buried>  (66) 


>  <PLP.part.hbond>  (66) 


>  <PLP.part.metal>  (66) 


>  <PLP.part.nonpolar>  (66) 


>  <PLP.part.repulsive>  (66) 


>  <Version>  (66) 


$$$$
66|Compound_25|Compounds_3D_F|sdf|11|dock4|1
     RDKit          3D

 10  9  0  0  0  0  0  0  0  0999 V2000
   -5.9362  -14.3771   10.8517 O   0  0  0  0  0  0  0  0  0  0  0  0
   -6.9319  -14.9053   10.1242 C   0  0  0  0  0  0  0  0  0  0  0  0
   -6.6875  -15.4695    9.0833 O   0  0  0  0  0  0  0  0  0  0  0  0
   -8.3564  -14.7948   10.6038 C   0  0  0  0  0  0  0  0  0  0  0  0
   -9.2436  -15.2232    9.5679 O   0  0  0  0  0  0  0  0  0  0  0  0
   -8.5482  -15.6790   11.8378 C   0  0  0  0  0  0  0  0  0  0  0  0
   -8.8357  -17.0520   11.4148 N   0  0  0  0  0  0  0  0  0  0  0  0
   -9.9999  -17.6354   11.7623 C   0  0  0  0  0  0  0  0  0  0  0  0
  -10.8091  -17.0231   12.4258 O   0  0  0  0  0  0  0  0  0  0  0  0
  -10.3075  -19.1059   11.3088 B   0  0  0  0  0  0  0  0  0  0  0  0
  1  2  1  0
  2  3  2  0
  2  4  1  0
  4  5  1  0
  4  6  1  0
  6  7  1  0
  7  8  1  0
  8  9  2  0
  8 10  1  0
M  END
>  <Gold.Gold.Protein.RotatedWaterAtoms>  (67) 


>  <Gold.Id.Protein>  (67) 


>  <Gold.PLP.Chemscore.CHOScore>  (67) 
0.0000

>  <Gold.PLP.Chemscore.Hbond>  (67) 
3.9585

>  <Gold.PLP.Chemscore.Internal.Correction>  (67) 
0.0006

>  <Gold.PLP.Chemscore.Metal>  (67) 
0.0000

>  <Gold.PLP.Fitness>  (67) 
31.2291

>  <Gold.PLP.PLP>  (67) 
-20.2376

>  <Gold.PLP.ligand.clash>  (67) 
0.0000

>  <Gold.PLP.ligand.torsion>  (67) 
0.4422

>  <Gold.PLP.part.buried>  (67) 
-3.9481

>  <Gold.PLP.part.hbond>  (67) 
-6.0000

>  <Gold.PLP.part.metal>  (67) 
0.0000

>  <Gold.PLP.part.nonpolar>  (67) 
-11.1703

>  <Gold.PLP.part.repulsive>  (67) 
0.2643

>  <Gold.Protein.RotatedAtoms>  (67) 


>  <Gold.Protein.RotatedTorsions>  (67) 


>  <Gold.Protein.RotatedWaterAtoms>  (67) 


>  <Gold.Version>  (67) 
5.3.0

>  <PLP.Chemscore.CHOScore>  (67) 


>  <PLP.Chemscore.Hbond>  (67) 


>  <PLP.Chemscore.Internal.Correction>  (67) 


>  <PLP.Chemscore.Metal>  (67) 


>  <PLP.Fitness>  (67) 


>  <PLP.PLP>  (67) 


>  <PLP.ligand.clash>  (67) 


>  <PLP.ligand.torsion>  (67) 


>  <PLP.part.buried>  (67) 


>  <PLP.part.hbond>  (67) 


>  <PLP.part.metal>  (67) 


>  <PLP.part.nonpolar>  (67) 


>  <PLP.part.repulsive>  (67) 


>  <Version>  (67) 


$$$$
67|Compound_25|Compounds_3D_F|sdf|11|dock5|1
     RDKit          3D

 10  9  0  0  0  0  0  0  0  0999 V2000
   -6.1944  -10.3952   12.6425 O   0  0  0  0  0  0  0  0  0  0  0  0
   -6.5650  -11.6171   12.2311 C   0  0  0  0  0  0  0  0  0  0  0  0
   -7.7068  -11.8204   11.8898 O   0  0  0  0  0  0  0  0  0  0  0  0
   -5.5579  -12.7379   12.1946 C   0  0  0  0  0  0  0  0  0  0  0  0
   -4.9565  -12.8815   13.4835 O   0  0  0  0  0  0  0  0  0  0  0  0
   -6.2610  -14.0418   11.8115 C   0  0  0  0  0  0  0  0  0  0  0  0
   -5.2586  -15.0732   11.5319 N   0  0  0  0  0  0  0  0  0  0  0  0
   -5.2594  -16.2232   12.2347 C   0  0  0  0  0  0  0  0  0  0  0  0
   -6.0903  -16.4034   13.0992 O   0  0  0  0  0  0  0  0  0  0  0  0
   -4.1858  -17.3277   11.9347 B   0  0  0  0  0  0  0  0  0  0  0  0
  1  2  1  0
  2  3  2  0
  2  4  1  0
  4  5  1  0
  4  6  1  0
  6  7  1  0
  7  8  1  0
  8  9  2  0
  8 10  1  0
M  END
>  <Gold.Gold.Protein.RotatedWaterAtoms>  (68) 


>  <Gold.Id.Protein>  (68) 


>  <Gold.PLP.Chemscore.CHOScore>  (68) 
0.0000

>  <Gold.PLP.Chemscore.Hbond>  (68) 
1.3088

>  <Gold.PLP.Chemscore.Internal.Correction>  (68) 
0.0006

>  <Gold.PLP.Chemscore.Metal>  (68) 
0.0000

>  <Gold.PLP.Fitness>  (68) 
32.8658

>  <Gold.PLP.PLP>  (68) 
-29.1485

>  <Gold.PLP.ligand.clash>  (68) 
0.0000

>  <Gold.PLP.ligand.torsion>  (68) 
0.1048

>  <Gold.PLP.part.buried>  (68) 
-7.1062

>  <Gold.PLP.part.hbond>  (68) 
-4.7802

>  <Gold.PLP.part.metal>  (68) 
0.0000

>  <Gold.PLP.part.nonpolar>  (68) 
-17.3218

>  <Gold.PLP.part.repulsive>  (68) 
0.2607

>  <Gold.Protein.RotatedAtoms>  (68) 


>  <Gold.Protein.RotatedTorsions>  (68) 


>  <Gold.Protein.RotatedWaterAtoms>  (68) 


>  <Gold.Version>  (68) 
5.3.0

>  <PLP.Chemscore.CHOScore>  (68) 


>  <PLP.Chemscore.Hbond>  (68) 


>  <PLP.Chemscore.Internal.Correction>  (68) 


>  <PLP.Chemscore.Metal>  (68) 


>  <PLP.Fitness>  (68) 


>  <PLP.PLP>  (68) 


>  <PLP.ligand.clash>  (68) 


>  <PLP.ligand.torsion>  (68) 


>  <PLP.part.buried>  (68) 


>  <PLP.part.hbond>  (68) 


>  <PLP.part.metal>  (68) 


>  <PLP.part.nonpolar>  (68) 


>  <PLP.part.repulsive>  (68) 


>  <Version>  (68) 


$$$$
68|Compound_25|Compounds_3D_F|sdf|11|dock6|1
     RDKit          3D

 10  9  0  0  0  0  0  0  0  0999 V2000
   -6.2141  -10.3347   12.5099 O   0  0  0  0  0  0  0  0  0  0  0  0
   -6.5377  -11.5966   12.1896 C   0  0  0  0  0  0  0  0  0  0  0  0
   -7.6782  -11.8742   11.9003 O   0  0  0  0  0  0  0  0  0  0  0  0
   -5.4794  -12.6697   12.1912 C   0  0  0  0  0  0  0  0  0  0  0  0
   -4.7863  -12.6551   13.4413 O   0  0  0  0  0  0  0  0  0  0  0  0
   -6.1390  -14.0356   11.9894 C   0  0  0  0  0  0  0  0  0  0  0  0
   -5.1142  -15.0283   11.6565 N   0  0  0  0  0  0  0  0  0  0  0  0
   -5.1169  -16.2312   12.2645 C   0  0  0  0  0  0  0  0  0  0  0  0
   -5.9682  -16.4909   13.0879 O   0  0  0  0  0  0  0  0  0  0  0  0
   -4.0193  -17.2942   11.9075 B   0  0  0  0  0  0  0  0  0  0  0  0
  1  2  1  0
  2  3  2  0
  2  4  1  0
  4  5  1  0
  4  6  1  0
  6  7  1  0
  7  8  1  0
  8  9  2  0
  8 10  1  0
M  END
>  <Gold.Gold.Protein.RotatedWaterAtoms>  (69) 


>  <Gold.Id.Protein>  (69) 


>  <Gold.PLP.Chemscore.CHOScore>  (69) 
0.0000

>  <Gold.PLP.Chemscore.Hbond>  (69) 
2.0000

>  <Gold.PLP.Chemscore.Internal.Correction>  (69) 
0.0006

>  <Gold.PLP.Chemscore.Metal>  (69) 
0.0000

>  <Gold.PLP.Fitness>  (69) 
35.1013

>  <Gold.PLP.PLP>  (69) 
-29.7118

>  <Gold.PLP.ligand.clash>  (69) 
0.0000

>  <Gold.PLP.ligand.torsion>  (69) 
0.3055

>  <Gold.PLP.part.buried>  (69) 
-6.8185

>  <Gold.PLP.part.hbond>  (69) 
-5.4818

>  <Gold.PLP.part.metal>  (69) 
0.0000

>  <Gold.PLP.part.nonpolar>  (69) 
-17.5892

>  <Gold.PLP.part.repulsive>  (69) 
0.2580

>  <Gold.Protein.RotatedAtoms>  (69) 


>  <Gold.Protein.RotatedTorsions>  (69) 


>  <Gold.Protein.RotatedWaterAtoms>  (69) 


>  <Gold.Version>  (69) 
5.3.0

>  <PLP.Chemscore.CHOScore>  (69) 


>  <PLP.Chemscore.Hbond>  (69) 


>  <PLP.Chemscore.Internal.Correction>  (69) 


>  <PLP.Chemscore.Metal>  (69) 


>  <PLP.Fitness>  (69) 


>  <PLP.PLP>  (69) 


>  <PLP.ligand.clash>  (69) 


>  <PLP.ligand.torsion>  (69) 


>  <PLP.part.buried>  (69) 


>  <PLP.part.hbond>  (69) 


>  <PLP.part.metal>  (69) 


>  <PLP.part.nonpolar>  (69) 


>  <PLP.part.repulsive>  (69) 


>  <Version>  (69) 


$$$$
69|Compound_26|Compounds_3D_F|sdf|12|dock1|1
     RDKit          3D

  9  8  0  0  0  0  0  0  0  0999 V2000
   -9.6132  -14.0038   12.4456 O   0  0  0  0  0  0  0  0  0  0  0  0
   -8.4727  -14.4711   11.9159 C   0  0  0  0  0  0  0  0  0  0  0  0
   -8.3582  -15.6489   11.6686 O   0  0  0  0  0  0  0  0  0  0  0  0
   -7.3327  -13.5278   11.6295 C   0  0  0  0  0  0  0  0  0  0  0  0
   -6.1556  -13.8544   12.5507 C   0  0  0  0  0  0  0  0  0  0  0  0
   -5.1851  -14.6816   11.8292 N   0  0  0  0  0  0  0  0  0  0  0  0
   -5.0954  -15.9998   12.0927 C   0  0  0  0  0  0  0  0  0  0  0  0
   -5.8178  -16.5023   12.9268 O   0  0  0  0  0  0  0  0  0  0  0  0
   -4.0564  -16.8865   11.3183 B   0  0  0  0  0  0  0  0  0  0  0  0
  1  2  1  0
  2  3  2  0
  2  4  1  0
  4  5  1  0
  5  6  1  0
  6  7  1  0
  7  8  2  0
  7  9  1  0
M  END
>  <Gold.Gold.Protein.RotatedWaterAtoms>  (70) 


>  <Gold.Id.Protein>  (70) 


>  <Gold.PLP.Chemscore.CHOScore>  (70) 
0.0000

>  <Gold.PLP.Chemscore.Hbond>  (70) 
2.0000

>  <Gold.PLP.Chemscore.Internal.Correction>  (70) 
0.0028

>  <Gold.PLP.Chemscore.Metal>  (70) 
0.0000

>  <Gold.PLP.Fitness>  (70) 
30.3803

>  <Gold.PLP.PLP>  (70) 
-25.1849

>  <Gold.PLP.ligand.clash>  (70) 
0.0000

>  <Gold.PLP.ligand.torsion>  (70) 
0.4037

>  <Gold.PLP.part.buried>  (70) 
-6.5325

>  <Gold.PLP.part.hbond>  (70) 
-2.4493

>  <Gold.PLP.part.metal>  (70) 
0.0000

>  <Gold.PLP.part.nonpolar>  (70) 
-16.1970

>  <Gold.PLP.part.repulsive>  (70) 
0.2134

>  <Gold.Protein.RotatedAtoms>  (70) 


>  <Gold.Protein.RotatedTorsions>  (70) 


>  <Gold.Protein.RotatedWaterAtoms>  (70) 


>  <Gold.Version>  (70) 
5.3.0

>  <PLP.Chemscore.CHOScore>  (70) 


>  <PLP.Chemscore.Hbond>  (70) 


>  <PLP.Chemscore.Internal.Correction>  (70) 


>  <PLP.Chemscore.Metal>  (70) 


>  <PLP.Fitness>  (70) 


>  <PLP.PLP>  (70) 


>  <PLP.ligand.clash>  (70) 


>  <PLP.ligand.torsion>  (70) 


>  <PLP.part.buried>  (70) 


>  <PLP.part.hbond>  (70) 


>  <PLP.part.metal>  (70) 


>  <PLP.part.nonpolar>  (70) 


>  <PLP.part.repulsive>  (70) 


>  <Version>  (70) 


$$$$
70|Compound_26|Compounds_3D_F|sdf|12|dock2|1
     RDKit          3D

  9  8  0  0  0  0  0  0  0  0999 V2000
   -4.6002  -12.5205   13.3464 O   0  0  0  0  0  0  0  0  0  0  0  0
   -5.5826  -12.1641   12.5052 C   0  0  0  0  0  0  0  0  0  0  0  0
   -5.7267  -11.0032   12.2002 O   0  0  0  0  0  0  0  0  0  0  0  0
   -6.5079  -13.2110   11.9403 C   0  0  0  0  0  0  0  0  0  0  0  0
   -6.1414  -14.5806   12.5153 C   0  0  0  0  0  0  0  0  0  0  0  0
   -5.0016  -15.1313   11.7775 N   0  0  0  0  0  0  0  0  0  0  0  0
   -4.6108  -16.4027   11.9921 C   0  0  0  0  0  0  0  0  0  0  0  0
   -5.2021  -17.0918   12.7957 O   0  0  0  0  0  0  0  0  0  0  0  0
   -3.3903  -16.9933   11.2003 B   0  0  0  0  0  0  0  0  0  0  0  0
  1  2  1  0
  2  3  2  0
  2  4  1  0
  4  5  1  0
  5  6  1  0
  6  7  1  0
  7  8  2  0
  7  9  1  0
M  END
>  <Gold.Gold.Protein.RotatedWaterAtoms>  (71) 


>  <Gold.Id.Protein>  (71) 


>  <Gold.PLP.Chemscore.CHOScore>  (71) 
0.0000

>  <Gold.PLP.Chemscore.Hbond>  (71) 
2.0000

>  <Gold.PLP.Chemscore.Internal.Correction>  (71) 
0.0004

>  <Gold.PLP.Chemscore.Metal>  (71) 
0.0000

>  <Gold.PLP.Fitness>  (71) 
31.7989

>  <Gold.PLP.PLP>  (71) 
-27.7443

>  <Gold.PLP.ligand.clash>  (71) 
1.6667

>  <Gold.PLP.ligand.torsion>  (71) 
0.1395

>  <Gold.PLP.part.buried>  (71) 
-7.0468

>  <Gold.PLP.part.hbond>  (71) 
-4.0000

>  <Gold.PLP.part.metal>  (71) 
0.0000

>  <Gold.PLP.part.nonpolar>  (71) 
-17.2366

>  <Gold.PLP.part.repulsive>  (71) 
0.4522

>  <Gold.Protein.RotatedAtoms>  (71) 


>  <Gold.Protein.RotatedTorsions>  (71) 


>  <Gold.Protein.RotatedWaterAtoms>  (71) 


>  <Gold.Version>  (71) 
5.3.0

>  <PLP.Chemscore.CHOScore>  (71) 


>  <PLP.Chemscore.Hbond>  (71) 


>  <PLP.Chemscore.Internal.Correction>  (71) 


>  <PLP.Chemscore.Metal>  (71) 


>  <PLP.Fitness>  (71) 


>  <PLP.PLP>  (71) 


>  <PLP.ligand.clash>  (71) 


>  <PLP.ligand.torsion>  (71) 


>  <PLP.part.buried>  (71) 


>  <PLP.part.hbond>  (71) 


>  <PLP.part.metal>  (71) 


>  <PLP.part.nonpolar>  (71) 


>  <PLP.part.repulsive>  (71) 


>  <Version>  (71) 


$$$$
71|Compound_26|Compounds_3D_F|sdf|12|dock3|1
     RDKit          3D

  9  8  0  0  0  0  0  0  0  0999 V2000
   -4.5961  -12.3722   13.3343 O   0  0  0  0  0  0  0  0  0  0  0  0
   -5.6403  -12.2832   12.4968 C   0  0  0  0  0  0  0  0  0  0  0  0
   -6.1222  -11.2040   12.2429 O   0  0  0  0  0  0  0  0  0  0  0  0
   -6.2141  -13.5292   11.8724 C   0  0  0  0  0  0  0  0  0  0  0  0
   -5.6912  -14.7602   12.6154 C   0  0  0  0  0  0  0  0  0  0  0  0
   -4.5868  -15.3554   11.8586 N   0  0  0  0  0  0  0  0  0  0  0  0
   -4.2768  -16.6555   12.0289 C   0  0  0  0  0  0  0  0  0  0  0  0
   -4.9116  -17.3335   12.8083 O   0  0  0  0  0  0  0  0  0  0  0  0
   -3.0942  -17.2937   11.2166 B   0  0  0  0  0  0  0  0  0  0  0  0
  1  2  1  0
  2  3  2  0
  2  4  1  0
  4  5  1  0
  5  6  1  0
  6  7  1  0
  7  8  2  0
  7  9  1  0
M  END
>  <Gold.Gold.Protein.RotatedWaterAtoms>  (72) 


>  <Gold.Id.Protein>  (72) 


>  <Gold.PLP.Chemscore.CHOScore>  (72) 
0.0000

>  <Gold.PLP.Chemscore.Hbond>  (72) 
2.0000

>  <Gold.PLP.Chemscore.Internal.Correction>  (72) 
0.0004

>  <Gold.PLP.Chemscore.Metal>  (72) 
0.0000

>  <Gold.PLP.Fitness>  (72) 
32.2904

>  <Gold.PLP.PLP>  (72) 
-28.4954

>  <Gold.PLP.ligand.clash>  (72) 
0.9515

>  <Gold.PLP.ligand.torsion>  (72) 
0.6270

>  <Gold.PLP.part.buried>  (72) 
-7.1903

>  <Gold.PLP.part.hbond>  (72) 
-4.5708

>  <Gold.PLP.part.metal>  (72) 
0.0000

>  <Gold.PLP.part.nonpolar>  (72) 
-17.2005

>  <Gold.PLP.part.repulsive>  (72) 
0.4282

>  <Gold.Protein.RotatedAtoms>  (72) 


>  <Gold.Protein.RotatedTorsions>  (72) 


>  <Gold.Protein.RotatedWaterAtoms>  (72) 


>  <Gold.Version>  (72) 
5.3.0

>  <PLP.Chemscore.CHOScore>  (72) 


>  <PLP.Chemscore.Hbond>  (72) 


>  <PLP.Chemscore.Internal.Correction>  (72) 


>  <PLP.Chemscore.Metal>  (72) 


>  <PLP.Fitness>  (72) 


>  <PLP.PLP>  (72) 


>  <PLP.ligand.clash>  (72) 


>  <PLP.ligand.torsion>  (72) 


>  <PLP.part.buried>  (72) 


>  <PLP.part.hbond>  (72) 


>  <PLP.part.metal>  (72) 


>  <PLP.part.nonpolar>  (72) 


>  <PLP.part.repulsive>  (72) 


>  <Version>  (72) 


$$$$
72|Compound_26|Compounds_3D_F|sdf|12|dock4|1
     RDKit          3D

  9  8  0  0  0  0  0  0  0  0999 V2000
   -9.3782  -13.6910   11.8710 O   0  0  0  0  0  0  0  0  0  0  0  0
   -8.1462  -14.1286   11.5703 C   0  0  0  0  0  0  0  0  0  0  0  0
   -7.9867  -15.2562   11.1647 O   0  0  0  0  0  0  0  0  0  0  0  0
   -6.9596  -13.2147   11.7388 C   0  0  0  0  0  0  0  0  0  0  0  0
   -5.9738  -13.8352   12.7308 C   0  0  0  0  0  0  0  0  0  0  0  0
   -4.9478  -14.5816   11.9982 N   0  0  0  0  0  0  0  0  0  0  0  0
   -4.8963  -15.9247   12.0911 C   0  0  0  0  0  0  0  0  0  0  0  0
   -5.6990  -16.5164   12.7808 O   0  0  0  0  0  0  0  0  0  0  0  0
   -3.7976  -16.7247   11.3046 B   0  0  0  0  0  0  0  0  0  0  0  0
  1  2  1  0
  2  3  2  0
  2  4  1  0
  4  5  1  0
  5  6  1  0
  6  7  1  0
  7  8  2  0
  7  9  1  0
M  END
>  <Gold.Gold.Protein.RotatedWaterAtoms>  (73) 


>  <Gold.Id.Protein>  (73) 


>  <Gold.PLP.Chemscore.CHOScore>  (73) 
0.0000

>  <Gold.PLP.Chemscore.Hbond>  (73) 
2.0000

>  <Gold.PLP.Chemscore.Internal.Correction>  (73) 
0.0004

>  <Gold.PLP.Chemscore.Metal>  (73) 
0.0000

>  <Gold.PLP.Fitness>  (73) 
30.8137

>  <Gold.PLP.PLP>  (73) 
-25.3443

>  <Gold.PLP.ligand.clash>  (73) 
0.0000

>  <Gold.PLP.ligand.torsion>  (73) 
0.2655

>  <Gold.PLP.part.buried>  (73) 
-5.7187

>  <Gold.PLP.part.hbond>  (73) 
-2.7189

>  <Gold.PLP.part.metal>  (73) 
0.0000

>  <Gold.PLP.part.nonpolar>  (73) 
-16.8917

>  <Gold.PLP.part.repulsive>  (73) 
0.2309

>  <Gold.Protein.RotatedAtoms>  (73) 


>  <Gold.Protein.RotatedTorsions>  (73) 


>  <Gold.Protein.RotatedWaterAtoms>  (73) 


>  <Gold.Version>  (73) 
5.3.0

>  <PLP.Chemscore.CHOScore>  (73) 


>  <PLP.Chemscore.Hbond>  (73) 


>  <PLP.Chemscore.Internal.Correction>  (73) 


>  <PLP.Chemscore.Metal>  (73) 


>  <PLP.Fitness>  (73) 


>  <PLP.PLP>  (73) 


>  <PLP.ligand.clash>  (73) 


>  <PLP.ligand.torsion>  (73) 


>  <PLP.part.buried>  (73) 


>  <PLP.part.hbond>  (73) 


>  <PLP.part.metal>  (73) 


>  <PLP.part.nonpolar>  (73) 


>  <PLP.part.repulsive>  (73) 


>  <Version>  (73) 


$$$$
73|Compound_26|Compounds_3D_F|sdf|12|dock5|1
     RDKit          3D

  9  8  0  0  0  0  0  0  0  0999 V2000
   -9.0879  -14.2070   10.5170 O   0  0  0  0  0  0  0  0  0  0  0  0
   -8.3591  -13.8398   11.5818 C   0  0  0  0  0  0  0  0  0  0  0  0
   -8.4845  -12.7316   12.0480 O   0  0  0  0  0  0  0  0  0  0  0  0
   -7.3826  -14.8090   12.1972 C   0  0  0  0  0  0  0  0  0  0  0  0
   -6.0576  -14.0945   12.4707 C   0  0  0  0  0  0  0  0  0  0  0  0
   -4.9617  -14.8417   11.8484 N   0  0  0  0  0  0  0  0  0  0  0  0
   -4.7787  -16.1428   12.1466 C   0  0  0  0  0  0  0  0  0  0  0  0
   -5.5207  -16.6960   12.9300 O   0  0  0  0  0  0  0  0  0  0  0  0
   -3.6051  -16.9440   11.4785 B   0  0  0  0  0  0  0  0  0  0  0  0
  1  2  1  0
  2  3  2  0
  2  4  1  0
  4  5  1  0
  5  6  1  0
  6  7  1  0
  7  8  2  0
  7  9  1  0
M  END
>  <Gold.Gold.Protein.RotatedWaterAtoms>  (74) 


>  <Gold.Id.Protein>  (74) 


>  <Gold.PLP.Chemscore.CHOScore>  (74) 
0.0000

>  <Gold.PLP.Chemscore.Hbond>  (74) 
2.0014

>  <Gold.PLP.Chemscore.Internal.Correction>  (74) 
0.0004

>  <Gold.PLP.Chemscore.Metal>  (74) 
0.0000

>  <Gold.PLP.Fitness>  (74) 
29.6997

>  <Gold.PLP.PLP>  (74) 
-24.8036

>  <Gold.PLP.ligand.clash>  (74) 
0.0000

>  <Gold.PLP.ligand.torsion>  (74) 
0.5542

>  <Gold.PLP.part.buried>  (74) 
-6.3980

>  <Gold.PLP.part.hbond>  (74) 
-3.2652

>  <Gold.PLP.part.metal>  (74) 
0.0000

>  <Gold.PLP.part.nonpolar>  (74) 
-15.5888

>  <Gold.PLP.part.repulsive>  (74) 
0.2499

>  <Gold.Protein.RotatedAtoms>  (74) 


>  <Gold.Protein.RotatedTorsions>  (74) 


>  <Gold.Protein.RotatedWaterAtoms>  (74) 


>  <Gold.Version>  (74) 
5.3.0

>  <PLP.Chemscore.CHOScore>  (74) 


>  <PLP.Chemscore.Hbond>  (74) 


>  <PLP.Chemscore.Internal.Correction>  (74) 


>  <PLP.Chemscore.Metal>  (74) 


>  <PLP.Fitness>  (74) 


>  <PLP.PLP>  (74) 


>  <PLP.ligand.clash>  (74) 


>  <PLP.ligand.torsion>  (74) 


>  <PLP.part.buried>  (74) 


>  <PLP.part.hbond>  (74) 


>  <PLP.part.metal>  (74) 


>  <PLP.part.nonpolar>  (74) 


>  <PLP.part.repulsive>  (74) 


>  <Version>  (74) 


$$$$
74|Compound_26|Compounds_3D_F|sdf|12|dock6|1
     RDKit          3D

  9  8  0  0  0  0  0  0  0  0999 V2000
   -4.3229  -12.1364   13.1000 O   0  0  0  0  0  0  0  0  0  0  0  0
   -5.5167  -12.0160   12.5000 C   0  0  0  0  0  0  0  0  0  0  0  0
   -6.0574  -10.9365   12.4393 O   0  0  0  0  0  0  0  0  0  0  0  0
   -6.1851  -13.2270   11.9016 C   0  0  0  0  0  0  0  0  0  0  0  0
   -5.8276  -14.4665   12.7242 C   0  0  0  0  0  0  0  0  0  0  0  0
   -4.5965  -15.0629   12.1996 N   0  0  0  0  0  0  0  0  0  0  0  0
   -4.5590  -16.3753   11.8975 C   0  0  0  0  0  0  0  0  0  0  0  0
   -5.5442  -17.0635   12.0593 O   0  0  0  0  0  0  0  0  0  0  0  0
   -3.2400  -17.0141   11.3339 B   0  0  0  0  0  0  0  0  0  0  0  0
  1  2  1  0
  2  3  2  0
  2  4  1  0
  4  5  1  0
  5  6  1  0
  6  7  1  0
  7  8  2  0
  7  9  1  0
M  END
>  <Gold.Gold.Protein.RotatedWaterAtoms>  (75) 


>  <Gold.Id.Protein>  (75) 


>  <Gold.PLP.Chemscore.CHOScore>  (75) 
0.0000

>  <Gold.PLP.Chemscore.Hbond>  (75) 
1.9588

>  <Gold.PLP.Chemscore.Internal.Correction>  (75) 
0.0004

>  <Gold.PLP.Chemscore.Metal>  (75) 
0.0000

>  <Gold.PLP.Fitness>  (75) 
32.3786

>  <Gold.PLP.PLP>  (75) 
-27.6627

>  <Gold.PLP.ligand.clash>  (75) 
0.0000

>  <Gold.PLP.ligand.torsion>  (75) 
0.5804

>  <Gold.PLP.part.buried>  (75) 
-6.4082

>  <Gold.PLP.part.hbond>  (75) 
-4.5832

>  <Gold.PLP.part.metal>  (75) 
0.0000

>  <Gold.PLP.part.nonpolar>  (75) 
-17.3859

>  <Gold.PLP.part.repulsive>  (75) 
0.4530

>  <Gold.Protein.RotatedAtoms>  (75) 


>  <Gold.Protein.RotatedTorsions>  (75) 


>  <Gold.Protein.RotatedWaterAtoms>  (75) 


>  <Gold.Version>  (75) 
5.3.0

>  <PLP.Chemscore.CHOScore>  (75) 


>  <PLP.Chemscore.Hbond>  (75) 


>  <PLP.Chemscore.Internal.Correction>  (75) 


>  <PLP.Chemscore.Metal>  (75) 


>  <PLP.Fitness>  (75) 


>  <PLP.PLP>  (75) 


>  <PLP.ligand.clash>  (75) 


>  <PLP.ligand.torsion>  (75) 


>  <PLP.part.buried>  (75) 


>  <PLP.part.hbond>  (75) 


>  <PLP.part.metal>  (75) 


>  <PLP.part.nonpolar>  (75) 


>  <PLP.part.repulsive>  (75) 


>  <Version>  (75) 


$$$$
75|Compound_31|Compounds_3D_F|sdf|13|dock1|1
     RDKit          3D

 10  9  0  0  0  0  0  0  0  0999 V2000
   -4.8012  -12.3294   13.2109 O   0  0  0  0  0  0  0  0  0  0  0  0
   -5.9155  -12.1004   12.5000 C   0  0  0  0  0  0  0  0  0  0  0  0
   -6.2217  -10.9694   12.2022 O   0  0  0  0  0  0  0  0  0  0  0  0
   -6.7872  -13.2532   12.0725 C   0  0  0  0  0  0  0  0  0  0  0  0
   -7.8714  -13.3980   12.9915 O   0  0  0  0  0  0  0  0  0  0  0  0
   -5.9588  -14.5396   12.0545 C   0  0  0  0  0  0  0  0  0  0  0  0
   -5.6461  -14.8998   10.6687 N   0  0  0  0  0  0  0  0  0  0  0  0
   -6.6396  -15.2021    9.8101 C   0  0  0  0  0  0  0  0  0  0  0  0
   -7.7926  -15.1763   10.1849 O   0  0  0  0  0  0  0  0  0  0  0  0
   -6.3043  -15.5871    8.3258 B   0  0  0  0  0  0  0  0  0  0  0  0
  1  2  1  0
  2  3  2  0
  2  4  1  0
  4  5  1  0
  4  6  1  0
  6  7  1  0
  7  8  1  0
  8  9  2  0
  8 10  1  0
M  END
>  <Gold.Gold.Protein.RotatedWaterAtoms>  (76) 


>  <Gold.Id.Protein>  (76) 


>  <Gold.PLP.Chemscore.CHOScore>  (76) 
0.0000

>  <Gold.PLP.Chemscore.Hbond>  (76) 
1.9920

>  <Gold.PLP.Chemscore.Internal.Correction>  (76) 
0.0024

>  <Gold.PLP.Chemscore.Metal>  (76) 
0.0000

>  <Gold.PLP.Fitness>  (76) 
29.8842

>  <Gold.PLP.PLP>  (76) 
-26.4613

>  <Gold.PLP.ligand.clash>  (76) 
0.0000

>  <Gold.PLP.ligand.torsion>  (76) 
1.2778

>  <Gold.PLP.part.buried>  (76) 
-7.2397

>  <Gold.PLP.part.hbond>  (76) 
-4.1275

>  <Gold.PLP.part.metal>  (76) 
0.0000

>  <Gold.PLP.part.nonpolar>  (76) 
-15.7442

>  <Gold.PLP.part.repulsive>  (76) 
0.4864

>  <Gold.Protein.RotatedAtoms>  (76) 


>  <Gold.Protein.RotatedTorsions>  (76) 


>  <Gold.Protein.RotatedWaterAtoms>  (76) 


>  <Gold.Version>  (76) 
5.3.0

>  <PLP.Chemscore.CHOScore>  (76) 


>  <PLP.Chemscore.Hbond>  (76) 


>  <PLP.Chemscore.Internal.Correction>  (76) 


>  <PLP.Chemscore.Metal>  (76) 


>  <PLP.Fitness>  (76) 


>  <PLP.PLP>  (76) 


>  <PLP.ligand.clash>  (76) 


>  <PLP.ligand.torsion>  (76) 


>  <PLP.part.buried>  (76) 


>  <PLP.part.hbond>  (76) 


>  <PLP.part.metal>  (76) 


>  <PLP.part.nonpolar>  (76) 


>  <PLP.part.repulsive>  (76) 


>  <Version>  (76) 


$$$$
76|Compound_31|Compounds_3D_F|sdf|13|dock2|1
     RDKit          3D

 10  9  0  0  0  0  0  0  0  0999 V2000
   -8.1011  -13.7161   12.7962 O   0  0  0  0  0  0  0  0  0  0  0  0
   -6.9790  -13.0792   12.4288 C   0  0  0  0  0  0  0  0  0  0  0  0
   -7.0461  -12.0512   11.7962 O   0  0  0  0  0  0  0  0  0  0  0  0
   -5.6336  -13.6454   12.8039 C   0  0  0  0  0  0  0  0  0  0  0  0
   -4.6008  -12.8271   12.2519 O   0  0  0  0  0  0  0  0  0  0  0  0
   -5.5070  -15.0672   12.2527 C   0  0  0  0  0  0  0  0  0  0  0  0
   -5.6221  -15.0367   10.7920 N   0  0  0  0  0  0  0  0  0  0  0  0
   -6.7225  -15.5317   10.1919 C   0  0  0  0  0  0  0  0  0  0  0  0
   -7.6172  -16.0026   10.8614 O   0  0  0  0  0  0  0  0  0  0  0  0
   -6.8457  -15.4982    8.6275 B   0  0  0  0  0  0  0  0  0  0  0  0
  1  2  1  0
  2  3  2  0
  2  4  1  0
  4  5  1  0
  4  6  1  0
  6  7  1  0
  7  8  1  0
  8  9  2  0
  8 10  1  0
M  END
>  <Gold.Gold.Protein.RotatedWaterAtoms>  (77) 


>  <Gold.Id.Protein>  (77) 


>  <Gold.PLP.Chemscore.CHOScore>  (77) 
0.0000

>  <Gold.PLP.Chemscore.Hbond>  (77) 
2.0000

>  <Gold.PLP.Chemscore.Internal.Correction>  (77) 
0.0020

>  <Gold.PLP.Chemscore.Metal>  (77) 
0.0000

>  <Gold.PLP.Fitness>  (77) 
30.3635

>  <Gold.PLP.PLP>  (77) 
-24.4952

>  <Gold.PLP.ligand.clash>  (77) 
0.0000

>  <Gold.PLP.ligand.torsion>  (77) 
0.0668

>  <Gold.PLP.part.buried>  (77) 
-4.7662

>  <Gold.PLP.part.hbond>  (77) 
-3.3515

>  <Gold.PLP.part.metal>  (77) 
0.0000

>  <Gold.PLP.part.nonpolar>  (77) 
-15.9012

>  <Gold.PLP.part.repulsive>  (77) 
0.2451

>  <Gold.Protein.RotatedAtoms>  (77) 


>  <Gold.Protein.RotatedTorsions>  (77) 


>  <Gold.Protein.RotatedWaterAtoms>  (77) 


>  <Gold.Version>  (77) 
5.3.0

>  <PLP.Chemscore.CHOScore>  (77) 


>  <PLP.Chemscore.Hbond>  (77) 


>  <PLP.Chemscore.Internal.Correction>  (77) 


>  <PLP.Chemscore.Metal>  (77) 


>  <PLP.Fitness>  (77) 


>  <PLP.PLP>  (77) 


>  <PLP.ligand.clash>  (77) 


>  <PLP.ligand.torsion>  (77) 


>  <PLP.part.buried>  (77) 


>  <PLP.part.hbond>  (77) 


>  <PLP.part.metal>  (77) 


>  <PLP.part.nonpolar>  (77) 


>  <PLP.part.repulsive>  (77) 


>  <Version>  (77) 


$$$$
77|Compound_31|Compounds_3D_F|sdf|13|dock3|1
     RDKit          3D

 10  9  0  0  0  0  0  0  0  0999 V2000
   -6.6018  -11.4987   12.1609 O   0  0  0  0  0  0  0  0  0  0  0  0
   -6.9543  -12.7795   12.3482 C   0  0  0  0  0  0  0  0  0  0  0  0
   -8.1223  -13.0800   12.4303 O   0  0  0  0  0  0  0  0  0  0  0  0
   -5.8938  -13.8449   12.4573 C   0  0  0  0  0  0  0  0  0  0  0  0
   -4.6031  -13.2502   12.3106 O   0  0  0  0  0  0  0  0  0  0  0  0
   -6.1029  -14.8872   11.3566 C   0  0  0  0  0  0  0  0  0  0  0  0
   -4.8240  -15.5314   11.0447 N   0  0  0  0  0  0  0  0  0  0  0  0
   -4.6090  -16.8123   11.4037 C   0  0  0  0  0  0  0  0  0  0  0  0
   -5.4743  -17.4314   11.9854 O   0  0  0  0  0  0  0  0  0  0  0  0
   -3.2394  -17.5021   11.0688 B   0  0  0  0  0  0  0  0  0  0  0  0
  1  2  1  0
  2  3  2  0
  2  4  1  0
  4  5  1  0
  4  6  1  0
  6  7  1  0
  7  8  1  0
  8  9  2  0
  8 10  1  0
M  END
>  <Gold.Gold.Protein.RotatedWaterAtoms>  (78) 


>  <Gold.Id.Protein>  (78) 


>  <Gold.PLP.Chemscore.CHOScore>  (78) 
0.0000

>  <Gold.PLP.Chemscore.Hbond>  (78) 
2.0000

>  <Gold.PLP.Chemscore.Internal.Correction>  (78) 
0.0009

>  <Gold.PLP.Chemscore.Metal>  (78) 
0.0000

>  <Gold.PLP.Fitness>  (78) 
29.7450

>  <Gold.PLP.PLP>  (78) 
-24.4568

>  <Gold.PLP.ligand.clash>  (78) 
0.0000

>  <Gold.PLP.ligand.torsion>  (78) 
0.3564

>  <Gold.PLP.part.buried>  (78) 
-6.8264

>  <Gold.PLP.part.hbond>  (78) 
-3.0000

>  <Gold.PLP.part.metal>  (78) 
0.0000

>  <Gold.PLP.part.nonpolar>  (78) 
-15.1758

>  <Gold.PLP.part.repulsive>  (78) 
0.2321

>  <Gold.Protein.RotatedAtoms>  (78) 


>  <Gold.Protein.RotatedTorsions>  (78) 


>  <Gold.Protein.RotatedWaterAtoms>  (78) 


>  <Gold.Version>  (78) 
5.3.0

>  <PLP.Chemscore.CHOScore>  (78) 


>  <PLP.Chemscore.Hbond>  (78) 


>  <PLP.Chemscore.Internal.Correction>  (78) 


>  <PLP.Chemscore.Metal>  (78) 


>  <PLP.Fitness>  (78) 


>  <PLP.PLP>  (78) 


>  <PLP.ligand.clash>  (78) 


>  <PLP.ligand.torsion>  (78) 


>  <PLP.part.buried>  (78) 


>  <PLP.part.hbond>  (78) 


>  <PLP.part.metal>  (78) 


>  <PLP.part.nonpolar>  (78) 


>  <PLP.part.repulsive>  (78) 


>  <Version>  (78) 


$$$$
78|Compound_31|Compounds_3D_F|sdf|13|dock4|1
     RDKit          3D

 10  9  0  0  0  0  0  0  0  0999 V2000
   -4.6001  -12.3878   13.2994 O   0  0  0  0  0  0  0  0  0  0  0  0
   -5.6708  -12.2784   12.4986 C   0  0  0  0  0  0  0  0  0  0  0  0
   -6.0516  -11.1876   12.1429 O   0  0  0  0  0  0  0  0  0  0  0  0
   -6.4003  -13.5158   12.0422 C   0  0  0  0  0  0  0  0  0  0  0  0
   -7.7823  -13.4100   12.3887 O   0  0  0  0  0  0  0  0  0  0  0  0
   -5.7962  -14.7449   12.7247 C   0  0  0  0  0  0  0  0  0  0  0  0
   -4.7047  -15.2734   11.9017 N   0  0  0  0  0  0  0  0  0  0  0  0
   -4.3364  -16.5643   12.0184 C   0  0  0  0  0  0  0  0  0  0  0  0
   -4.9085  -17.2884   12.8052 O   0  0  0  0  0  0  0  0  0  0  0  0
   -3.1679  -17.1302   11.1362 B   0  0  0  0  0  0  0  0  0  0  0  0
  1  2  1  0
  2  3  2  0
  2  4  1  0
  4  5  1  0
  4  6  1  0
  6  7  1  0
  7  8  1  0
  8  9  2  0
  8 10  1  0
M  END
>  <Gold.Gold.Protein.RotatedWaterAtoms>  (79) 


>  <Gold.Id.Protein>  (79) 


>  <Gold.PLP.Chemscore.CHOScore>  (79) 
0.0000

>  <Gold.PLP.Chemscore.Hbond>  (79) 
2.0000

>  <Gold.PLP.Chemscore.Internal.Correction>  (79) 
0.0008

>  <Gold.PLP.Chemscore.Metal>  (79) 
0.0000

>  <Gold.PLP.Fitness>  (79) 
32.2576

>  <Gold.PLP.PLP>  (79) 
-29.0468

>  <Gold.PLP.ligand.clash>  (79) 
1.6250

>  <Gold.PLP.ligand.torsion>  (79) 
0.5825

>  <Gold.PLP.part.buried>  (79) 
-7.9511

>  <Gold.PLP.part.hbond>  (79) 
-4.4295

>  <Gold.PLP.part.metal>  (79) 
0.0000

>  <Gold.PLP.part.nonpolar>  (79) 
-17.4249

>  <Gold.PLP.part.repulsive>  (79) 
0.4302

>  <Gold.Protein.RotatedAtoms>  (79) 


>  <Gold.Protein.RotatedTorsions>  (79) 


>  <Gold.Protein.RotatedWaterAtoms>  (79) 


>  <Gold.Version>  (79) 
5.3.0

>  <PLP.Chemscore.CHOScore>  (79) 


>  <PLP.Chemscore.Hbond>  (79) 


>  <PLP.Chemscore.Internal.Correction>  (79) 


>  <PLP.Chemscore.Metal>  (79) 


>  <PLP.Fitness>  (79) 


>  <PLP.PLP>  (79) 


>  <PLP.ligand.clash>  (79) 


>  <PLP.ligand.torsion>  (79) 


>  <PLP.part.buried>  (79) 


>  <PLP.part.hbond>  (79) 


>  <PLP.part.metal>  (79) 


>  <PLP.part.nonpolar>  (79) 


>  <PLP.part.repulsive>  (79) 


>  <Version>  (79) 


$$$$
79|Compound_31|Compounds_3D_F|sdf|13|dock5|1
     RDKit          3D

 10  9  0  0  0  0  0  0  0  0999 V2000
  -14.1956  -19.9993    8.0070 O   0  0  0  0  0  0  0  0  0  0  0  0
  -13.8019  -19.2793    9.0683 C   0  0  0  0  0  0  0  0  0  0  0  0
  -13.5205  -18.1110    8.9364 O   0  0  0  0  0  0  0  0  0  0  0  0
  -13.7095  -19.9269   10.4261 C   0  0  0  0  0  0  0  0  0  0  0  0
  -15.0238  -20.2024   10.9139 O   0  0  0  0  0  0  0  0  0  0  0  0
  -12.9941  -18.9821   11.3941 C   0  0  0  0  0  0  0  0  0  0  0  0
  -11.5549  -18.9976   11.1176 N   0  0  0  0  0  0  0  0  0  0  0  0
  -10.7421  -18.1106   11.7245 C   0  0  0  0  0  0  0  0  0  0  0  0
  -11.2024  -17.2992   12.4994 O   0  0  0  0  0  0  0  0  0  0  0  0
   -9.2007  -18.1281   11.4287 B   0  0  0  0  0  0  0  0  0  0  0  0
  1  2  1  0
  2  3  2  0
  2  4  1  0
  4  5  1  0
  4  6  1  0
  6  7  1  0
  7  8  1  0
  8  9  2  0
  8 10  1  0
M  END
>  <Gold.Gold.Protein.RotatedWaterAtoms>  (80) 


>  <Gold.Id.Protein>  (80) 


>  <Gold.PLP.Chemscore.CHOScore>  (80) 
0.0000

>  <Gold.PLP.Chemscore.Hbond>  (80) 
4.0000

>  <Gold.PLP.Chemscore.Internal.Correction>  (80) 
0.0008

>  <Gold.PLP.Chemscore.Metal>  (80) 
0.0000

>  <Gold.PLP.Fitness>  (80) 
32.7633

>  <Gold.PLP.PLP>  (80) 
-21.5019

>  <Gold.PLP.ligand.clash>  (80) 
0.0000

>  <Gold.PLP.ligand.torsion>  (80) 
0.3697

>  <Gold.PLP.part.buried>  (80) 
-2.6473

>  <Gold.PLP.part.hbond>  (80) 
-5.0000

>  <Gold.PLP.part.metal>  (80) 
0.0000

>  <Gold.PLP.part.nonpolar>  (80) 
-13.3074

>  <Gold.PLP.part.repulsive>  (80) 
0.1765

>  <Gold.Protein.RotatedAtoms>  (80) 


>  <Gold.Protein.RotatedTorsions>  (80) 


>  <Gold.Protein.RotatedWaterAtoms>  (80) 


>  <Gold.Version>  (80) 
5.3.0

>  <PLP.Chemscore.CHOScore>  (80) 


>  <PLP.Chemscore.Hbond>  (80) 


>  <PLP.Chemscore.Internal.Correction>  (80) 


>  <PLP.Chemscore.Metal>  (80) 


>  <PLP.Fitness>  (80) 


>  <PLP.PLP>  (80) 


>  <PLP.ligand.clash>  (80) 


>  <PLP.ligand.torsion>  (80) 


>  <PLP.part.buried>  (80) 


>  <PLP.part.hbond>  (80) 


>  <PLP.part.metal>  (80) 


>  <PLP.part.nonpolar>  (80) 


>  <PLP.part.repulsive>  (80) 


>  <Version>  (80) 


$$$$
80|Compound_31|Compounds_3D_F|sdf|13|dock6|1
     RDKit          3D

 10  9  0  0  0  0  0  0  0  0999 V2000
   -4.3071  -12.1153   13.0824 O   0  0  0  0  0  0  0  0  0  0  0  0
   -5.4928  -12.5269   12.6088 C   0  0  0  0  0  0  0  0  0  0  0  0
   -6.2786  -11.7234   12.1634 O   0  0  0  0  0  0  0  0  0  0  0  0
   -5.8465  -13.9918   12.6324 C   0  0  0  0  0  0  0  0  0  0  0  0
   -4.9195  -14.7196   11.8250 O   0  0  0  0  0  0  0  0  0  0  0  0
   -7.2617  -14.1837   12.0828 C   0  0  0  0  0  0  0  0  0  0  0  0
   -7.4765  -15.5994   11.7707 N   0  0  0  0  0  0  0  0  0  0  0  0
   -8.7121  -16.1296   11.8603 C   0  0  0  0  0  0  0  0  0  0  0  0
   -9.6461  -15.4345   12.1997 O   0  0  0  0  0  0  0  0  0  0  0  0
   -8.9420  -17.6457   11.5252 B   0  0  0  0  0  0  0  0  0  0  0  0
  1  2  1  0
  2  3  2  0
  2  4  1  0
  4  5  1  0
  4  6  1  0
  6  7  1  0
  7  8  1  0
  8  9  2  0
  8 10  1  0
M  END
>  <Gold.Gold.Protein.RotatedWaterAtoms>  (81) 


>  <Gold.Id.Protein>  (81) 


>  <Gold.PLP.Chemscore.CHOScore>  (81) 
0.0000

>  <Gold.PLP.Chemscore.Hbond>  (81) 
2.7680

>  <Gold.PLP.Chemscore.Internal.Correction>  (81) 
0.0008

>  <Gold.PLP.Chemscore.Metal>  (81) 
0.0000

>  <Gold.PLP.Fitness>  (81) 
36.3850

>  <Gold.PLP.PLP>  (81) 
-28.6876

>  <Gold.PLP.ligand.clash>  (81) 
0.0000

>  <Gold.PLP.ligand.torsion>  (81) 
0.3036

>  <Gold.PLP.part.buried>  (81) 
-7.6461

>  <Gold.PLP.part.hbond>  (81) 
-5.0159

>  <Gold.PLP.part.metal>  (81) 
0.0000

>  <Gold.PLP.part.nonpolar>  (81) 
-17.2271

>  <Gold.PLP.part.repulsive>  (81) 
0.4229

>  <Gold.Protein.RotatedAtoms>  (81) 


>  <Gold.Protein.RotatedTorsions>  (81) 


>  <Gold.Protein.RotatedWaterAtoms>  (81) 


>  <Gold.Version>  (81) 
5.3.0

>  <PLP.Chemscore.CHOScore>  (81) 


>  <PLP.Chemscore.Hbond>  (81) 


>  <PLP.Chemscore.Internal.Correction>  (81) 


>  <PLP.Chemscore.Metal>  (81) 


>  <PLP.Fitness>  (81) 


>  <PLP.PLP>  (81) 


>  <PLP.ligand.clash>  (81) 


>  <PLP.ligand.torsion>  (81) 


>  <PLP.part.buried>  (81) 


>  <PLP.part.hbond>  (81) 


>  <PLP.part.metal>  (81) 


>  <PLP.part.nonpolar>  (81) 


>  <PLP.part.repulsive>  (81) 


>  <Version>  (81) 


$$$$
81|Compound_31|Compounds_3D_F|sdf|13|dock7|1
     RDKit          3D

 10  9  0  0  0  0  0  0  0  0999 V2000
   -4.3559  -12.1947   13.0677 O   0  0  0  0  0  0  0  0  0  0  0  0
   -5.5032  -12.6985   12.5886 C   0  0  0  0  0  0  0  0  0  0  0  0
   -6.3403  -11.9611   12.1231 O   0  0  0  0  0  0  0  0  0  0  0  0
   -5.7496  -14.1848   12.6312 C   0  0  0  0  0  0  0  0  0  0  0  0
   -4.6949  -14.8632   11.9467 O   0  0  0  0  0  0  0  0  0  0  0  0
   -7.0840  -14.5002   11.9519 C   0  0  0  0  0  0  0  0  0  0  0  0
   -7.1492  -15.9318   11.6447 N   0  0  0  0  0  0  0  0  0  0  0  0
   -8.3391  -16.5639   11.6270 C   0  0  0  0  0  0  0  0  0  0  0  0
   -9.3558  -15.9476   11.8657 O   0  0  0  0  0  0  0  0  0  0  0  0
   -8.4087  -18.0970   11.2972 B   0  0  0  0  0  0  0  0  0  0  0  0
  1  2  1  0
  2  3  2  0
  2  4  1  0
  4  5  1  0
  4  6  1  0
  6  7  1  0
  7  8  1  0
  8  9  2  0
  8 10  1  0
M  END
>  <Gold.Gold.Protein.RotatedWaterAtoms>  (82) 


>  <Gold.Id.Protein>  (82) 


>  <Gold.PLP.Chemscore.CHOScore>  (82) 
0.0000

>  <Gold.PLP.Chemscore.Hbond>  (82) 
2.4473

>  <Gold.PLP.Chemscore.Internal.Correction>  (82) 
0.0004

>  <Gold.PLP.Chemscore.Metal>  (82) 
0.0000

>  <Gold.PLP.Fitness>  (82) 
34.9244

>  <Gold.PLP.PLP>  (82) 
-28.2606

>  <Gold.PLP.ligand.clash>  (82) 
0.0000

>  <Gold.PLP.ligand.torsion>  (82) 
0.3392

>  <Gold.PLP.part.buried>  (82) 
-7.2887

>  <Gold.PLP.part.hbond>  (82) 
-5.5403

>  <Gold.PLP.part.metal>  (82) 
0.0000

>  <Gold.PLP.part.nonpolar>  (82) 
-16.3833

>  <Gold.PLP.part.repulsive>  (82) 
0.3765

>  <Gold.Protein.RotatedAtoms>  (82) 


>  <Gold.Protein.RotatedTorsions>  (82) 


>  <Gold.Protein.RotatedWaterAtoms>  (82) 


>  <Gold.Version>  (82) 
5.3.0

>  <PLP.Chemscore.CHOScore>  (82) 


>  <PLP.Chemscore.Hbond>  (82) 


>  <PLP.Chemscore.Internal.Correction>  (82) 


>  <PLP.Chemscore.Metal>  (82) 


>  <PLP.Fitness>  (82) 


>  <PLP.PLP>  (82) 


>  <PLP.ligand.clash>  (82) 


>  <PLP.ligand.torsion>  (82) 


>  <PLP.part.buried>  (82) 


>  <PLP.part.hbond>  (82) 


>  <PLP.part.metal>  (82) 


>  <PLP.part.nonpolar>  (82) 


>  <PLP.part.repulsive>  (82) 


>  <Version>  (82) 


$$$$
82|Compound_31|Compounds_3D_F|sdf|13|dock8|1
     RDKit          3D

 10  9  0  0  0  0  0  0  0  0999 V2000
   -4.5345  -12.2866   13.3615 O   0  0  0  0  0  0  0  0  0  0  0  0
   -5.5004  -12.6388   12.4997 C   0  0  0  0  0  0  0  0  0  0  0  0
   -6.1382  -11.7879   11.9246 O   0  0  0  0  0  0  0  0  0  0  0  0
   -5.7917  -14.0960   12.2483 C   0  0  0  0  0  0  0  0  0  0  0  0
   -4.6341  -14.7257   11.6963 O   0  0  0  0  0  0  0  0  0  0  0  0
   -6.9577  -14.2208   11.2653 C   0  0  0  0  0  0  0  0  0  0  0  0
   -7.0808  -15.6142   10.8281 N   0  0  0  0  0  0  0  0  0  0  0  0
   -6.6182  -15.9845    9.6178 C   0  0  0  0  0  0  0  0  0  0  0  0
   -6.1003  -15.1639    8.8906 O   0  0  0  0  0  0  0  0  0  0  0  0
   -6.7496  -17.4771    9.1502 B   0  0  0  0  0  0  0  0  0  0  0  0
  1  2  1  0
  2  3  2  0
  2  4  1  0
  4  5  1  0
  4  6  1  0
  6  7  1  0
  7  8  1  0
  8  9  2  0
  8 10  1  0
M  END
>  <Gold.Gold.Protein.RotatedWaterAtoms>  (83) 


>  <Gold.Id.Protein>  (83) 


>  <Gold.PLP.Chemscore.CHOScore>  (83) 
0.0000

>  <Gold.PLP.Chemscore.Hbond>  (83) 
2.8160

>  <Gold.PLP.Chemscore.Internal.Correction>  (83) 
0.0004

>  <Gold.PLP.Chemscore.Metal>  (83) 
0.0000

>  <Gold.PLP.Fitness>  (83) 
32.6782

>  <Gold.PLP.PLP>  (83) 
-24.5936

>  <Gold.PLP.ligand.clash>  (83) 
0.0000

>  <Gold.PLP.ligand.torsion>  (83) 
0.1819

>  <Gold.PLP.part.buried>  (83) 
-5.9830

>  <Gold.PLP.part.hbond>  (83) 
-6.5145

>  <Gold.PLP.part.metal>  (83) 
0.0000

>  <Gold.PLP.part.nonpolar>  (83) 
-12.7098

>  <Gold.PLP.part.repulsive>  (83) 
0.4898

>  <Gold.Protein.RotatedAtoms>  (83) 


>  <Gold.Protein.RotatedTorsions>  (83) 


>  <Gold.Protein.RotatedWaterAtoms>  (83) 


>  <Gold.Version>  (83) 
5.3.0

>  <PLP.Chemscore.CHOScore>  (83) 


>  <PLP.Chemscore.Hbond>  (83) 


>  <PLP.Chemscore.Internal.Correction>  (83) 


>  <PLP.Chemscore.Metal>  (83) 


>  <PLP.Fitness>  (83) 


>  <PLP.PLP>  (83) 


>  <PLP.ligand.clash>  (83) 


>  <PLP.ligand.torsion>  (83) 


>  <PLP.part.buried>  (83) 


>  <PLP.part.hbond>  (83) 


>  <PLP.part.metal>  (83) 


>  <PLP.part.nonpolar>  (83) 


>  <PLP.part.repulsive>  (83) 


>  <Version>  (83) 


$$$$
83|Compound_31|Compounds_3D_F|sdf|13|dock9|1
     RDKit          3D

 10  9  0  0  0  0  0  0  0  0999 V2000
   -4.3804  -12.2123   13.1679 O   0  0  0  0  0  0  0  0  0  0  0  0
   -5.4979  -12.5557   12.5099 C   0  0  0  0  0  0  0  0  0  0  0  0
   -6.1743  -11.7049   11.9808 O   0  0  0  0  0  0  0  0  0  0  0  0
   -5.9113  -14.0029   12.4305 C   0  0  0  0  0  0  0  0  0  0  0  0
   -4.8370  -14.7773   11.8945 O   0  0  0  0  0  0  0  0  0  0  0  0
   -7.1366  -14.1342   11.5234 C   0  0  0  0  0  0  0  0  0  0  0  0
   -7.4483  -15.5526   11.3259 N   0  0  0  0  0  0  0  0  0  0  0  0
   -8.6489  -16.0374   11.6990 C   0  0  0  0  0  0  0  0  0  0  0  0
   -9.4712  -15.2993   12.1986 O   0  0  0  0  0  0  0  0  0  0  0  0
   -8.9826  -17.5564   11.4866 B   0  0  0  0  0  0  0  0  0  0  0  0
  1  2  1  0
  2  3  2  0
  2  4  1  0
  4  5  1  0
  4  6  1  0
  6  7  1  0
  7  8  1  0
  8  9  2  0
  8 10  1  0
M  END
>  <Gold.Gold.Protein.RotatedWaterAtoms>  (84) 


>  <Gold.Id.Protein>  (84) 


>  <Gold.PLP.Chemscore.CHOScore>  (84) 
0.0000

>  <Gold.PLP.Chemscore.Hbond>  (84) 
2.6800

>  <Gold.PLP.Chemscore.Internal.Correction>  (84) 
0.0004

>  <Gold.PLP.Chemscore.Metal>  (84) 
0.0000

>  <Gold.PLP.Fitness>  (84) 
36.6419

>  <Gold.PLP.PLP>  (84) 
-28.7559

>  <Gold.PLP.ligand.clash>  (84) 
0.0000

>  <Gold.PLP.ligand.torsion>  (84) 
0.0772

>  <Gold.PLP.part.buried>  (84) 
-7.1726

>  <Gold.PLP.part.hbond>  (84) 
-5.8872

>  <Gold.PLP.part.metal>  (84) 
0.0000

>  <Gold.PLP.part.nonpolar>  (84) 
-16.3404

>  <Gold.PLP.part.repulsive>  (84) 
0.4256

>  <Gold.Protein.RotatedAtoms>  (84) 


>  <Gold.Protein.RotatedTorsions>  (84) 


>  <Gold.Protein.RotatedWaterAtoms>  (84) 


>  <Gold.Version>  (84) 
5.3.0

>  <PLP.Chemscore.CHOScore>  (84) 


>  <PLP.Chemscore.Hbond>  (84) 


>  <PLP.Chemscore.Internal.Correction>  (84) 


>  <PLP.Chemscore.Metal>  (84) 


>  <PLP.Fitness>  (84) 


>  <PLP.PLP>  (84) 


>  <PLP.ligand.clash>  (84) 


>  <PLP.ligand.torsion>  (84) 


>  <PLP.part.buried>  (84) 


>  <PLP.part.hbond>  (84) 


>  <PLP.part.metal>  (84) 


>  <PLP.part.nonpolar>  (84) 


>  <PLP.part.repulsive>  (84) 


>  <Version>  (84) 


$$$$
84|Compound_32|Compounds_3D_F|sdf|14|dock1|1
     RDKit          3D

  9  9  0  0  0  0  0  0  0  0999 V2000
   -5.4938  -12.2123   12.4998 B   0  0  0  0  0  0  0  0  0  0  0  0
   -5.7329  -13.7419   12.2410 C   0  0  0  0  0  0  0  0  0  0  0  0
   -6.8595  -14.1621   12.0844 O   0  0  0  0  0  0  0  0  0  0  0  0
   -4.6851  -14.5888   12.1930 N   0  0  0  0  0  0  0  0  0  0  0  0
   -4.9084  -16.0168   11.9517 C   0  0  0  0  0  0  0  0  0  0  0  0
   -5.6459  -16.7086   13.0997 C   0  0  0  0  0  0  0  0  0  0  0  0
   -5.4915  -16.3278   10.5602 C   0  0  0  0  0  0  0  0  0  0  0  0
   -4.5384  -17.4094   10.5278 O   0  0  0  0  0  0  0  0  0  0  0  0
   -3.6536  -16.7705   11.4752 C   0  0  0  0  0  0  0  0  0  0  0  0
  1  2  1  0
  2  3  2  0
  2  4  1  0
  4  5  1  0
  5  6  1  0
  5  7  1  0
  5  9  1  0
  7  8  1  0
  8  9  1  0
M  END
>  <Gold.Gold.Protein.RotatedWaterAtoms>  (85) 


>  <Gold.Id.Protein>  (85) 


>  <Gold.PLP.Chemscore.CHOScore>  (85) 
0.0000

>  <Gold.PLP.Chemscore.Hbond>  (85) 
1.0000

>  <Gold.PLP.Chemscore.Internal.Correction>  (85) 
0.2523

>  <Gold.PLP.Chemscore.Metal>  (85) 
0.0000

>  <Gold.PLP.Fitness>  (85) 
27.4444

>  <Gold.PLP.PLP>  (85) 
-24.5216

>  <Gold.PLP.ligand.clash>  (85) 
0.0000

>  <Gold.PLP.ligand.torsion>  (85) 
0.1648

>  <Gold.PLP.part.buried>  (85) 
-4.6788

>  <Gold.PLP.part.hbond>  (85) 
-2.0000

>  <Gold.PLP.part.metal>  (85) 
0.0000

>  <Gold.PLP.part.nonpolar>  (85) 
-18.6383

>  <Gold.PLP.part.repulsive>  (85) 
0.2999

>  <Gold.Protein.RotatedAtoms>  (85) 


>  <Gold.Protein.RotatedTorsions>  (85) 


>  <Gold.Protein.RotatedWaterAtoms>  (85) 


>  <Gold.Version>  (85) 
5.3.0

>  <PLP.Chemscore.CHOScore>  (85) 


>  <PLP.Chemscore.Hbond>  (85) 


>  <PLP.Chemscore.Internal.Correction>  (85) 


>  <PLP.Chemscore.Metal>  (85) 


>  <PLP.Fitness>  (85) 


>  <PLP.PLP>  (85) 


>  <PLP.ligand.clash>  (85) 


>  <PLP.ligand.torsion>  (85) 


>  <PLP.part.buried>  (85) 


>  <PLP.part.hbond>  (85) 


>  <PLP.part.metal>  (85) 


>  <PLP.part.nonpolar>  (85) 


>  <PLP.part.repulsive>  (85) 


>  <Version>  (85) 


$$$$
85|Compound_32|Compounds_3D_F|sdf|14|dock2|1
     RDKit          3D

  9  9  0  0  0  0  0  0  0  0999 V2000
  -15.1577  -22.2146    7.3944 B   0  0  0  0  0  0  0  0  0  0  0  0
  -14.4114  -21.3521    8.4728 C   0  0  0  0  0  0  0  0  0  0  0  0
  -13.7922  -21.8957    9.3624 O   0  0  0  0  0  0  0  0  0  0  0  0
  -14.4590  -20.0063    8.4099 N   0  0  0  0  0  0  0  0  0  0  0  0
  -13.7625  -19.2013    9.4168 C   0  0  0  0  0  0  0  0  0  0  0  0
  -14.1643  -19.5577   10.8492 C   0  0  0  0  0  0  0  0  0  0  0  0
  -12.2396  -19.1172    9.2000 C   0  0  0  0  0  0  0  0  0  0  0  0
  -12.3869  -17.7172    9.5127 O   0  0  0  0  0  0  0  0  0  0  0  0
  -13.7786  -17.6900    9.1243 C   0  0  0  0  0  0  0  0  0  0  0  0
  1  2  1  0
  2  3  2  0
  2  4  1  0
  4  5  1  0
  5  6  1  0
  5  7  1  0
  5  9  1  0
  7  8  1  0
  8  9  1  0
M  END
>  <Gold.Gold.Protein.RotatedWaterAtoms>  (86) 


>  <Gold.Id.Protein>  (86) 


>  <Gold.PLP.Chemscore.CHOScore>  (86) 
0.0000

>  <Gold.PLP.Chemscore.Hbond>  (86) 
1.9120

>  <Gold.PLP.Chemscore.Internal.Correction>  (86) 
0.2523

>  <Gold.PLP.Chemscore.Metal>  (86) 
0.0000

>  <Gold.PLP.Fitness>  (86) 
29.8110

>  <Gold.PLP.PLP>  (86) 
-24.1252

>  <Gold.PLP.ligand.clash>  (86) 
0.0000

>  <Gold.PLP.ligand.torsion>  (86) 
0.1512

>  <Gold.PLP.part.buried>  (86) 
-2.9552

>  <Gold.PLP.part.hbond>  (86) 
-2.0000

>  <Gold.PLP.part.metal>  (86) 
0.0000

>  <Gold.PLP.part.nonpolar>  (86) 
-19.9654

>  <Gold.PLP.part.repulsive>  (86) 
0.2349

>  <Gold.Protein.RotatedAtoms>  (86) 


>  <Gold.Protein.RotatedTorsions>  (86) 


>  <Gold.Protein.RotatedWaterAtoms>  (86) 


>  <Gold.Version>  (86) 
5.3.0

>  <PLP.Chemscore.CHOScore>  (86) 


>  <PLP.Chemscore.Hbond>  (86) 


>  <PLP.Chemscore.Internal.Correction>  (86) 


>  <PLP.Chemscore.Metal>  (86) 


>  <PLP.Fitness>  (86) 


>  <PLP.PLP>  (86) 


>  <PLP.ligand.clash>  (86) 


>  <PLP.ligand.torsion>  (86) 


>  <PLP.part.buried>  (86) 


>  <PLP.part.hbond>  (86) 


>  <PLP.part.metal>  (86) 


>  <PLP.part.nonpolar>  (86) 


>  <PLP.part.repulsive>  (86) 


>  <Version>  (86) 


$$$$
86|Compound_32|Compounds_3D_F|sdf|14|dock3|1
     RDKit          3D

  9  9  0  0  0  0  0  0  0  0999 V2000
   -5.5023  -12.2024   12.4994 B   0  0  0  0  0  0  0  0  0  0  0  0
   -5.7194  -13.7451   12.3083 C   0  0  0  0  0  0  0  0  0  0  0  0
   -6.8429  -14.1982   12.2574 O   0  0  0  0  0  0  0  0  0  0  0  0
   -4.6560  -14.5668   12.2009 N   0  0  0  0  0  0  0  0  0  0  0  0
   -4.8588  -16.0070   12.0227 C   0  0  0  0  0  0  0  0  0  0  0  0
   -5.7956  -16.6126   13.0697 C   0  0  0  0  0  0  0  0  0  0  0  0
   -5.1976  -16.4123   10.5756 C   0  0  0  0  0  0  0  0  0  0  0  0
   -4.2720  -17.4983   10.7836 O   0  0  0  0  0  0  0  0  0  0  0  0
   -3.5536  -16.7988   11.8243 C   0  0  0  0  0  0  0  0  0  0  0  0
  1  2  1  0
  2  3  2  0
  2  4  1  0
  4  5  1  0
  5  6  1  0
  5  7  1  0
  5  9  1  0
  7  8  1  0
  8  9  1  0
M  END
>  <Gold.Gold.Protein.RotatedWaterAtoms>  (87) 


>  <Gold.Id.Protein>  (87) 


>  <Gold.PLP.Chemscore.CHOScore>  (87) 
0.0000

>  <Gold.PLP.Chemscore.Hbond>  (87) 
1.0000

>  <Gold.PLP.Chemscore.Internal.Correction>  (87) 
0.2523

>  <Gold.PLP.Chemscore.Metal>  (87) 
0.0000

>  <Gold.PLP.Fitness>  (87) 
28.0488

>  <Gold.PLP.PLP>  (87) 
-25.1540

>  <Gold.PLP.ligand.clash>  (87) 
0.0000

>  <Gold.PLP.ligand.torsion>  (87) 
0.1788

>  <Gold.PLP.part.buried>  (87) 
-4.4467

>  <Gold.PLP.part.hbond>  (87) 
-2.0000

>  <Gold.PLP.part.metal>  (87) 
0.0000

>  <Gold.PLP.part.nonpolar>  (87) 
-19.2769

>  <Gold.PLP.part.repulsive>  (87) 
0.3199

>  <Gold.Protein.RotatedAtoms>  (87) 


>  <Gold.Protein.RotatedTorsions>  (87) 


>  <Gold.Protein.RotatedWaterAtoms>  (87) 


>  <Gold.Version>  (87) 
5.3.0

>  <PLP.Chemscore.CHOScore>  (87) 


>  <PLP.Chemscore.Hbond>  (87) 


>  <PLP.Chemscore.Internal.Correction>  (87) 


>  <PLP.Chemscore.Metal>  (87) 


>  <PLP.Fitness>  (87) 


>  <PLP.PLP>  (87) 


>  <PLP.ligand.clash>  (87) 


>  <PLP.ligand.torsion>  (87) 


>  <PLP.part.buried>  (87) 


>  <PLP.part.hbond>  (87) 


>  <PLP.part.metal>  (87) 


>  <PLP.part.nonpolar>  (87) 


>  <PLP.part.repulsive>  (87) 


>  <Version>  (87) 


$$$$
87|Compound_32|Compounds_3D_F|sdf|14|dock4|1
     RDKit          3D

  9  9  0  0  0  0  0  0  0  0999 V2000
   -5.8663  -15.9535    8.1389 B   0  0  0  0  0  0  0  0  0  0  0  0
   -6.4077  -15.6230    9.5747 C   0  0  0  0  0  0  0  0  0  0  0  0
   -7.5008  -16.0202    9.9175 O   0  0  0  0  0  0  0  0  0  0  0  0
   -5.6568  -14.8970   10.4271 N   0  0  0  0  0  0  0  0  0  0  0  0
   -6.1624  -14.5883   11.7674 C   0  0  0  0  0  0  0  0  0  0  0  0
   -6.0962  -15.7830   12.7207 C   0  0  0  0  0  0  0  0  0  0  0  0
   -5.5932  -13.2858   12.3612 C   0  0  0  0  0  0  0  0  0  0  0  0
   -6.9448  -13.0248   12.7906 O   0  0  0  0  0  0  0  0  0  0  0  0
   -7.5223  -13.8670   11.7680 C   0  0  0  0  0  0  0  0  0  0  0  0
  1  2  1  0
  2  3  2  0
  2  4  1  0
  4  5  1  0
  5  6  1  0
  5  7  1  0
  5  9  1  0
  7  8  1  0
  8  9  1  0
M  END
>  <Gold.Gold.Protein.RotatedWaterAtoms>  (88) 


>  <Gold.Id.Protein>  (88) 


>  <Gold.PLP.Chemscore.CHOScore>  (88) 
0.0000

>  <Gold.PLP.Chemscore.Hbond>  (88) 
1.0000

>  <Gold.PLP.Chemscore.Internal.Correction>  (88) 
0.2523

>  <Gold.PLP.Chemscore.Metal>  (88) 
0.0000

>  <Gold.PLP.Fitness>  (88) 
25.9184

>  <Gold.PLP.PLP>  (88) 
-23.2516

>  <Gold.PLP.ligand.clash>  (88) 
0.0000

>  <Gold.PLP.ligand.torsion>  (88) 
0.2928

>  <Gold.PLP.part.buried>  (88) 
-5.1037

>  <Gold.PLP.part.hbond>  (88) 
-1.0000

>  <Gold.PLP.part.metal>  (88) 
0.0000

>  <Gold.PLP.part.nonpolar>  (88) 
-18.1340

>  <Gold.PLP.part.repulsive>  (88) 
1.1078

>  <Gold.Protein.RotatedAtoms>  (88) 


>  <Gold.Protein.RotatedTorsions>  (88) 


>  <Gold.Protein.RotatedWaterAtoms>  (88) 


>  <Gold.Version>  (88) 
5.3.0

>  <PLP.Chemscore.CHOScore>  (88) 


>  <PLP.Chemscore.Hbond>  (88) 


>  <PLP.Chemscore.Internal.Correction>  (88) 


>  <PLP.Chemscore.Metal>  (88) 


>  <PLP.Fitness>  (88) 


>  <PLP.PLP>  (88) 


>  <PLP.ligand.clash>  (88) 


>  <PLP.ligand.torsion>  (88) 


>  <PLP.part.buried>  (88) 


>  <PLP.part.hbond>  (88) 


>  <PLP.part.metal>  (88) 


>  <PLP.part.nonpolar>  (88) 


>  <PLP.part.repulsive>  (88) 


>  <Version>  (88) 


$$$$
88|Compound_32|Compounds_3D_F|sdf|14|dock5|1
     RDKit          3D

  9  9  0  0  0  0  0  0  0  0999 V2000
  -15.1720  -22.2296    7.4016 B   0  0  0  0  0  0  0  0  0  0  0  0
  -14.4413  -21.3542    8.4803 C   0  0  0  0  0  0  0  0  0  0  0  0
  -13.8637  -21.8863    9.4040 O   0  0  0  0  0  0  0  0  0  0  0  0
  -14.4562  -20.0099    8.3795 N   0  0  0  0  0  0  0  0  0  0  0  0
  -13.7742  -19.1927    9.3866 C   0  0  0  0  0  0  0  0  0  0  0  0
  -14.2081  -19.5213   10.8164 C   0  0  0  0  0  0  0  0  0  0  0  0
  -12.2467  -19.1236    9.2000 C   0  0  0  0  0  0  0  0  0  0  0  0
  -12.3895  -17.7175    9.4856 O   0  0  0  0  0  0  0  0  0  0  0  0
  -13.7727  -17.6866    9.0681 C   0  0  0  0  0  0  0  0  0  0  0  0
  1  2  1  0
  2  3  2  0
  2  4  1  0
  4  5  1  0
  5  6  1  0
  5  7  1  0
  5  9  1  0
  7  8  1  0
  8  9  1  0
M  END
>  <Gold.Gold.Protein.RotatedWaterAtoms>  (89) 


>  <Gold.Id.Protein>  (89) 


>  <Gold.PLP.Chemscore.CHOScore>  (89) 
0.0000

>  <Gold.PLP.Chemscore.Hbond>  (89) 
1.9199

>  <Gold.PLP.Chemscore.Internal.Correction>  (89) 
0.2523

>  <Gold.PLP.Chemscore.Metal>  (89) 
0.0000

>  <Gold.PLP.Fitness>  (89) 
29.9671

>  <Gold.PLP.PLP>  (89) 
-24.2809

>  <Gold.PLP.ligand.clash>  (89) 
0.0000

>  <Gold.PLP.ligand.torsion>  (89) 
0.1629

>  <Gold.PLP.part.buried>  (89) 
-3.0034

>  <Gold.PLP.part.hbond>  (89) 
-2.0000

>  <Gold.PLP.part.metal>  (89) 
0.0000

>  <Gold.PLP.part.nonpolar>  (89) 
-20.0337

>  <Gold.PLP.part.repulsive>  (89) 
0.2429

>  <Gold.Protein.RotatedAtoms>  (89) 


>  <Gold.Protein.RotatedTorsions>  (89) 


>  <Gold.Protein.RotatedWaterAtoms>  (89) 


>  <Gold.Version>  (89) 
5.3.0

>  <PLP.Chemscore.CHOScore>  (89) 


>  <PLP.Chemscore.Hbond>  (89) 


>  <PLP.Chemscore.Internal.Correction>  (89) 


>  <PLP.Chemscore.Metal>  (89) 


>  <PLP.Fitness>  (89) 


>  <PLP.PLP>  (89) 


>  <PLP.ligand.clash>  (89) 


>  <PLP.ligand.torsion>  (89) 


>  <PLP.part.buried>  (89) 


>  <PLP.part.hbond>  (89) 


>  <PLP.part.metal>  (89) 


>  <PLP.part.nonpolar>  (89) 


>  <PLP.part.repulsive>  (89) 


>  <Version>  (89) 


$$$$
89|Compound_32|Compounds_3D_F|sdf|14|dock6|1
     RDKit          3D

  9  9  0  0  0  0  0  0  0  0999 V2000
  -15.1560  -22.2152    7.4013 B   0  0  0  0  0  0  0  0  0  0  0  0
  -14.4244  -21.3477    8.4858 C   0  0  0  0  0  0  0  0  0  0  0  0
  -13.8742  -21.8853    9.4231 O   0  0  0  0  0  0  0  0  0  0  0  0
  -14.4080  -20.0042    8.3751 N   0  0  0  0  0  0  0  0  0  0  0  0
  -13.7252  -19.1945    9.3877 C   0  0  0  0  0  0  0  0  0  0  0  0
  -14.1896  -19.5033   10.8123 C   0  0  0  0  0  0  0  0  0  0  0  0
  -12.1936  -19.1597    9.2260 C   0  0  0  0  0  0  0  0  0  0  0  0
  -12.3107  -17.7487    9.4993 O   0  0  0  0  0  0  0  0  0  0  0  0
  -13.6858  -17.6912    9.0587 C   0  0  0  0  0  0  0  0  0  0  0  0
  1  2  1  0
  2  3  2  0
  2  4  1  0
  4  5  1  0
  5  6  1  0
  5  7  1  0
  5  9  1  0
  7  8  1  0
  8  9  1  0
M  END
>  <Gold.Gold.Protein.RotatedWaterAtoms>  (90) 


>  <Gold.Id.Protein>  (90) 


>  <Gold.PLP.Chemscore.CHOScore>  (90) 
0.0000

>  <Gold.PLP.Chemscore.Hbond>  (90) 
1.9760

>  <Gold.PLP.Chemscore.Internal.Correction>  (90) 
0.2523

>  <Gold.PLP.Chemscore.Metal>  (90) 
0.0000

>  <Gold.PLP.Fitness>  (90) 
29.9771

>  <Gold.PLP.PLP>  (90) 
-24.1226

>  <Gold.PLP.ligand.clash>  (90) 
0.0000

>  <Gold.PLP.ligand.torsion>  (90) 
0.1629

>  <Gold.PLP.part.buried>  (90) 
-3.4436

>  <Gold.PLP.part.hbond>  (90) 
-2.0000

>  <Gold.PLP.part.metal>  (90) 
0.0000

>  <Gold.PLP.part.nonpolar>  (90) 
-19.6494

>  <Gold.PLP.part.repulsive>  (90) 
0.2414

>  <Gold.Protein.RotatedAtoms>  (90) 


>  <Gold.Protein.RotatedTorsions>  (90) 


>  <Gold.Protein.RotatedWaterAtoms>  (90) 


>  <Gold.Version>  (90) 
5.3.0

>  <PLP.Chemscore.CHOScore>  (90) 


>  <PLP.Chemscore.Hbond>  (90) 


>  <PLP.Chemscore.Internal.Correction>  (90) 


>  <PLP.Chemscore.Metal>  (90) 


>  <PLP.Fitness>  (90) 


>  <PLP.PLP>  (90) 


>  <PLP.ligand.clash>  (90) 


>  <PLP.ligand.torsion>  (90) 


>  <PLP.part.buried>  (90) 


>  <PLP.part.hbond>  (90) 


>  <PLP.part.metal>  (90) 


>  <PLP.part.nonpolar>  (90) 


>  <PLP.part.repulsive>  (90) 


>  <Version>  (90) 


$$$$
90|Compound_34|Compounds_3D_F|sdf|15|dock1|1
     RDKit          3D

 10  9  0  0  0  0  0  0  0  0999 V2000
   -5.8170  -14.9561    9.1259 O   0  0  0  0  0  0  0  0  0  0  0  0
   -6.1086  -15.8075   10.1208 C   0  0  0  0  0  0  0  0  0  0  0  0
   -6.5361  -16.9097    9.8683 O   0  0  0  0  0  0  0  0  0  0  0  0
   -5.9042  -15.3899   11.5545 C   0  0  0  0  0  0  0  0  0  0  0  0
   -5.4628  -13.9935   11.5993 N   0  0  0  0  0  0  0  0  0  0  0  0
   -6.2105  -13.0703   12.2363 C   0  0  0  0  0  0  0  0  0  0  0  0
   -7.2483  -13.3950   12.7718 O   0  0  0  0  0  0  0  0  0  0  0  0
   -5.7373  -11.5746   12.2833 B   0  0  0  0  0  0  0  0  0  0  0  0
   -4.8406  -16.2816   12.1990 C   0  0  0  0  0  0  0  0  0  0  0  0
   -3.5944  -16.1010   11.5232 O   0  0  0  0  0  0  0  0  0  0  0  0
  1  2  1  0
  2  3  2  0
  2  4  1  0
  4  5  1  0
  4  9  1  0
  5  6  1  0
  6  7  2  0
  6  8  1  0
  9 10  1  0
M  END
>  <Gold.Gold.Protein.RotatedWaterAtoms>  (91) 


>  <Gold.Id.Protein>  (91) 


>  <Gold.PLP.Chemscore.CHOScore>  (91) 
0.0000

>  <Gold.PLP.Chemscore.Hbond>  (91) 
2.9913

>  <Gold.PLP.Chemscore.Internal.Correction>  (91) 
0.0012

>  <Gold.PLP.Chemscore.Metal>  (91) 
0.0000

>  <Gold.PLP.Fitness>  (91) 
34.5477

>  <Gold.PLP.PLP>  (91) 
-25.6343

>  <Gold.PLP.ligand.clash>  (91) 
0.0000

>  <Gold.PLP.ligand.torsion>  (91) 
0.0307

>  <Gold.PLP.part.buried>  (91) 
-5.7344

>  <Gold.PLP.part.hbond>  (91) 
-5.1889

>  <Gold.PLP.part.metal>  (91) 
0.0000

>  <Gold.PLP.part.nonpolar>  (91) 
-15.1662

>  <Gold.PLP.part.repulsive>  (91) 
0.2659

>  <Gold.Protein.RotatedAtoms>  (91) 


>  <Gold.Protein.RotatedTorsions>  (91) 


>  <Gold.Protein.RotatedWaterAtoms>  (91) 


>  <Gold.Version>  (91) 
5.3.0

>  <PLP.Chemscore.CHOScore>  (91) 


>  <PLP.Chemscore.Hbond>  (91) 


>  <PLP.Chemscore.Internal.Correction>  (91) 


>  <PLP.Chemscore.Metal>  (91) 


>  <PLP.Fitness>  (91) 


>  <PLP.PLP>  (91) 


>  <PLP.ligand.clash>  (91) 


>  <PLP.ligand.torsion>  (91) 


>  <PLP.part.buried>  (91) 


>  <PLP.part.hbond>  (91) 


>  <PLP.part.metal>  (91) 


>  <PLP.part.nonpolar>  (91) 


>  <PLP.part.repulsive>  (91) 


>  <Version>  (91) 


$$$$
91|Compound_34|Compounds_3D_F|sdf|15|dock2|1
     RDKit          3D

 10  9  0  0  0  0  0  0  0  0999 V2000
   -4.2743  -12.0454   12.9267 O   0  0  0  0  0  0  0  0  0  0  0  0
   -5.5196  -12.3053   12.5010 C   0  0  0  0  0  0  0  0  0  0  0  0
   -6.2552  -11.3974   12.1911 O   0  0  0  0  0  0  0  0  0  0  0  0
   -6.0029  -13.7300   12.4094 C   0  0  0  0  0  0  0  0  0  0  0  0
   -4.9076  -14.5901   11.9545 N   0  0  0  0  0  0  0  0  0  0  0  0
   -4.9429  -15.9146   12.2023 C   0  0  0  0  0  0  0  0  0  0  0  0
   -5.8808  -16.3944   12.8019 O   0  0  0  0  0  0  0  0  0  0  0  0
   -3.7688  -16.8352   11.7152 B   0  0  0  0  0  0  0  0  0  0  0  0
   -7.1627  -13.8124   11.4144 C   0  0  0  0  0  0  0  0  0  0  0  0
   -8.2354  -12.9819   11.8634 O   0  0  0  0  0  0  0  0  0  0  0  0
  1  2  1  0
  2  3  2  0
  2  4  1  0
  4  5  1  0
  4  9  1  0
  5  6  1  0
  6  7  2  0
  6  8  1  0
  9 10  1  0
M  END
>  <Gold.Gold.Protein.RotatedWaterAtoms>  (92) 


>  <Gold.Id.Protein>  (92) 


>  <Gold.PLP.Chemscore.CHOScore>  (92) 
0.0000

>  <Gold.PLP.Chemscore.Hbond>  (92) 
1.9920

>  <Gold.PLP.Chemscore.Internal.Correction>  (92) 
0.0012

>  <Gold.PLP.Chemscore.Metal>  (92) 
0.0000

>  <Gold.PLP.Fitness>  (92) 
34.1421

>  <Gold.PLP.PLP>  (92) 
-30.0711

>  <Gold.PLP.ligand.clash>  (92) 
0.0000

>  <Gold.PLP.ligand.torsion>  (92) 
0.9531

>  <Gold.PLP.part.buried>  (92) 
-8.3674

>  <Gold.PLP.part.hbond>  (92) 
-3.7992

>  <Gold.PLP.part.metal>  (92) 
0.0000

>  <Gold.PLP.part.nonpolar>  (92) 
-17.7397

>  <Gold.PLP.part.repulsive>  (92) 
0.4480

>  <Gold.Protein.RotatedAtoms>  (92) 


>  <Gold.Protein.RotatedTorsions>  (92) 


>  <Gold.Protein.RotatedWaterAtoms>  (92) 


>  <Gold.Version>  (92) 
5.3.0

>  <PLP.Chemscore.CHOScore>  (92) 


>  <PLP.Chemscore.Hbond>  (92) 


>  <PLP.Chemscore.Internal.Correction>  (92) 


>  <PLP.Chemscore.Metal>  (92) 


>  <PLP.Fitness>  (92) 


>  <PLP.PLP>  (92) 


>  <PLP.ligand.clash>  (92) 


>  <PLP.ligand.torsion>  (92) 


>  <PLP.part.buried>  (92) 


>  <PLP.part.hbond>  (92) 


>  <PLP.part.metal>  (92) 


>  <PLP.part.nonpolar>  (92) 


>  <PLP.part.repulsive>  (92) 


>  <Version>  (92) 


$$$$
92|Compound_34|Compounds_3D_F|sdf|15|dock3|1
     RDKit          3D

 10  9  0  0  0  0  0  0  0  0999 V2000
   -4.3462  -12.2085   13.0990 O   0  0  0  0  0  0  0  0  0  0  0  0
   -5.4929  -12.5672   12.5024 C   0  0  0  0  0  0  0  0  0  0  0  0
   -6.2008  -11.7275   11.9971 O   0  0  0  0  0  0  0  0  0  0  0  0
   -5.9001  -14.0178   12.4624 C   0  0  0  0  0  0  0  0  0  0  0  0
   -4.8281  -14.8104   11.8548 N   0  0  0  0  0  0  0  0  0  0  0  0
   -4.7650  -16.1390   12.0737 C   0  0  0  0  0  0  0  0  0  0  0  0
   -5.5948  -16.6782   12.7736 O   0  0  0  0  0  0  0  0  0  0  0  0
   -3.6159  -16.9872   11.4230 B   0  0  0  0  0  0  0  0  0  0  0  0
   -7.1771  -14.1666   11.6324 C   0  0  0  0  0  0  0  0  0  0  0  0
   -8.2330  -13.4241   12.2456 O   0  0  0  0  0  0  0  0  0  0  0  0
  1  2  1  0
  2  3  2  0
  2  4  1  0
  4  5  1  0
  4  9  1  0
  5  6  1  0
  6  7  2  0
  6  8  1  0
  9 10  1  0
M  END
>  <Gold.Gold.Protein.RotatedWaterAtoms>  (93) 


>  <Gold.Id.Protein>  (93) 


>  <Gold.PLP.Chemscore.CHOScore>  (93) 
0.0000

>  <Gold.PLP.Chemscore.Hbond>  (93) 
1.9440

>  <Gold.PLP.Chemscore.Internal.Correction>  (93) 
0.0005

>  <Gold.PLP.Chemscore.Metal>  (93) 
0.0000

>  <Gold.PLP.Fitness>  (93) 
35.1810

>  <Gold.PLP.PLP>  (93) 
-30.0202

>  <Gold.PLP.ligand.clash>  (93) 
0.0000

>  <Gold.PLP.ligand.torsion>  (93) 
0.3359

>  <Gold.PLP.part.buried>  (93) 
-7.9999

>  <Gold.PLP.part.hbond>  (93) 
-4.5149

>  <Gold.PLP.part.metal>  (93) 
0.0000

>  <Gold.PLP.part.nonpolar>  (93) 
-17.5159

>  <Gold.PLP.part.repulsive>  (93) 
0.4307

>  <Gold.Protein.RotatedAtoms>  (93) 


>  <Gold.Protein.RotatedTorsions>  (93) 


>  <Gold.Protein.RotatedWaterAtoms>  (93) 


>  <Gold.Version>  (93) 
5.3.0

>  <PLP.Chemscore.CHOScore>  (93) 


>  <PLP.Chemscore.Hbond>  (93) 


>  <PLP.Chemscore.Internal.Correction>  (93) 


>  <PLP.Chemscore.Metal>  (93) 


>  <PLP.Fitness>  (93) 


>  <PLP.PLP>  (93) 


>  <PLP.ligand.clash>  (93) 


>  <PLP.ligand.torsion>  (93) 


>  <PLP.part.buried>  (93) 


>  <PLP.part.hbond>  (93) 


>  <PLP.part.metal>  (93) 


>  <PLP.part.nonpolar>  (93) 


>  <PLP.part.repulsive>  (93) 


>  <Version>  (93) 


$$$$
93|Compound_34|Compounds_3D_F|sdf|15|dock4|1
     RDKit          3D

 10  9  0  0  0  0  0  0  0  0999 V2000
   -4.6314  -12.1579   13.0355 O   0  0  0  0  0  0  0  0  0  0  0  0
   -5.8511  -12.4195   12.5420 C   0  0  0  0  0  0  0  0  0  0  0  0
   -6.5498  -11.5164   12.1449 O   0  0  0  0  0  0  0  0  0  0  0  0
   -6.3517  -13.8399   12.4830 C   0  0  0  0  0  0  0  0  0  0  0  0
   -5.4858  -14.6277   11.6020 N   0  0  0  0  0  0  0  0  0  0  0  0
   -5.5674  -15.9732   11.6039 C   0  0  0  0  0  0  0  0  0  0  0  0
   -6.3567  -16.5317   12.3348 O   0  0  0  0  0  0  0  0  0  0  0  0
   -4.6390  -16.8164   10.6603 B   0  0  0  0  0  0  0  0  0  0  0  0
   -7.7817  -13.8548   11.9385 C   0  0  0  0  0  0  0  0  0  0  0  0
   -8.6927  -13.5060   12.9829 O   0  0  0  0  0  0  0  0  0  0  0  0
  1  2  1  0
  2  3  2  0
  2  4  1  0
  4  5  1  0
  4  9  1  0
  5  6  1  0
  6  7  2  0
  6  8  1  0
  9 10  1  0
M  END
>  <Gold.Gold.Protein.RotatedWaterAtoms>  (94) 


>  <Gold.Id.Protein>  (94) 


>  <Gold.PLP.Chemscore.CHOScore>  (94) 
0.0000

>  <Gold.PLP.Chemscore.Hbond>  (94) 
2.7473

>  <Gold.PLP.Chemscore.Internal.Correction>  (94) 
0.0005

>  <Gold.PLP.Chemscore.Metal>  (94) 
0.0000

>  <Gold.PLP.Fitness>  (94) 
34.5170

>  <Gold.PLP.PLP>  (94) 
-26.9812

>  <Gold.PLP.ligand.clash>  (94) 
0.0000

>  <Gold.PLP.ligand.torsion>  (94) 
0.3532

>  <Gold.PLP.part.buried>  (94) 
-7.7920

>  <Gold.PLP.part.hbond>  (94) 
-4.8001

>  <Gold.PLP.part.metal>  (94) 
0.0000

>  <Gold.PLP.part.nonpolar>  (94) 
-14.9573

>  <Gold.PLP.part.repulsive>  (94) 
0.3483

>  <Gold.Protein.RotatedAtoms>  (94) 


>  <Gold.Protein.RotatedTorsions>  (94) 


>  <Gold.Protein.RotatedWaterAtoms>  (94) 


>  <Gold.Version>  (94) 
5.3.0

>  <PLP.Chemscore.CHOScore>  (94) 


>  <PLP.Chemscore.Hbond>  (94) 


>  <PLP.Chemscore.Internal.Correction>  (94) 


>  <PLP.Chemscore.Metal>  (94) 


>  <PLP.Fitness>  (94) 


>  <PLP.PLP>  (94) 


>  <PLP.ligand.clash>  (94) 


>  <PLP.ligand.torsion>  (94) 


>  <PLP.part.buried>  (94) 


>  <PLP.part.hbond>  (94) 


>  <PLP.part.metal>  (94) 


>  <PLP.part.nonpolar>  (94) 


>  <PLP.part.repulsive>  (94) 


>  <Version>  (94) 


$$$$
94|Compound_34|Compounds_3D_F|sdf|15|dock5|1
     RDKit          3D

 10  9  0  0  0  0  0  0  0  0999 V2000
   -5.0899  -12.2722   13.0288 O   0  0  0  0  0  0  0  0  0  0  0  0
   -6.3289  -12.2522   12.5150 C   0  0  0  0  0  0  0  0  0  0  0  0
   -6.7864  -11.2221   12.0780 O   0  0  0  0  0  0  0  0  0  0  0  0
   -7.1521  -13.5144   12.4830 C   0  0  0  0  0  0  0  0  0  0  0  0
   -6.6063  -14.4293   11.4773 N   0  0  0  0  0  0  0  0  0  0  0  0
   -6.1237  -15.6313   11.8506 C   0  0  0  0  0  0  0  0  0  0  0  0
   -6.1409  -15.9554   13.0184 O   0  0  0  0  0  0  0  0  0  0  0  0
   -5.5386  -16.6106   10.7726 B   0  0  0  0  0  0  0  0  0  0  0  0
   -8.6000  -13.1703   12.1268 C   0  0  0  0  0  0  0  0  0  0  0  0
   -9.4528  -14.2549   12.4992 O   0  0  0  0  0  0  0  0  0  0  0  0
  1  2  1  0
  2  3  2  0
  2  4  1  0
  4  5  1  0
  4  9  1  0
  5  6  1  0
  6  7  2  0
  6  8  1  0
  9 10  1  0
M  END
>  <Gold.Gold.Protein.RotatedWaterAtoms>  (95) 


>  <Gold.Id.Protein>  (95) 


>  <Gold.PLP.Chemscore.CHOScore>  (95) 
0.0000

>  <Gold.PLP.Chemscore.Hbond>  (95) 
2.4375

>  <Gold.PLP.Chemscore.Internal.Correction>  (95) 
0.0005

>  <Gold.PLP.Chemscore.Metal>  (95) 
0.0000

>  <Gold.PLP.Fitness>  (95) 
32.4816

>  <Gold.PLP.PLP>  (95) 
-25.9705

>  <Gold.PLP.ligand.clash>  (95) 
0.0000

>  <Gold.PLP.ligand.torsion>  (95) 
0.4010

>  <Gold.PLP.part.buried>  (95) 
-7.9245

>  <Gold.PLP.part.hbond>  (95) 
-4.0965

>  <Gold.PLP.part.metal>  (95) 
0.0000

>  <Gold.PLP.part.nonpolar>  (95) 
-15.1261

>  <Gold.PLP.part.repulsive>  (95) 
0.3917

>  <Gold.Protein.RotatedAtoms>  (95) 


>  <Gold.Protein.RotatedTorsions>  (95) 


>  <Gold.Protein.RotatedWaterAtoms>  (95) 


>  <Gold.Version>  (95) 
5.3.0

>  <PLP.Chemscore.CHOScore>  (95) 


>  <PLP.Chemscore.Hbond>  (95) 


>  <PLP.Chemscore.Internal.Correction>  (95) 


>  <PLP.Chemscore.Metal>  (95) 


>  <PLP.Fitness>  (95) 


>  <PLP.PLP>  (95) 


>  <PLP.ligand.clash>  (95) 


>  <PLP.ligand.torsion>  (95) 


>  <PLP.part.buried>  (95) 


>  <PLP.part.hbond>  (95) 


>  <PLP.part.metal>  (95) 


>  <PLP.part.nonpolar>  (95) 


>  <PLP.part.repulsive>  (95) 


>  <Version>  (95) 


$$$$
95|Compound_34|Compounds_3D_F|sdf|15|dock6|1
     RDKit          3D

 10  9  0  0  0  0  0  0  0  0999 V2000
   -4.6118  -12.3676   13.2193 O   0  0  0  0  0  0  0  0  0  0  0  0
   -5.7501  -12.7196   12.6028 C   0  0  0  0  0  0  0  0  0  0  0  0
   -6.4648  -11.8717   12.1213 O   0  0  0  0  0  0  0  0  0  0  0  0
   -6.1393  -14.1727   12.5107 C   0  0  0  0  0  0  0  0  0  0  0  0
   -5.1675  -14.8879   11.6796 N   0  0  0  0  0  0  0  0  0  0  0  0
   -5.0466  -16.2263   11.7842 C   0  0  0  0  0  0  0  0  0  0  0  0
   -5.7415  -16.8386   12.5662 O   0  0  0  0  0  0  0  0  0  0  0  0
   -4.0049  -16.9916   10.8939 B   0  0  0  0  0  0  0  0  0  0  0  0
   -7.5302  -14.2898   11.8836 C   0  0  0  0  0  0  0  0  0  0  0  0
   -8.5096  -13.8011   12.8024 O   0  0  0  0  0  0  0  0  0  0  0  0
  1  2  1  0
  2  3  2  0
  2  4  1  0
  4  5  1  0
  4  9  1  0
  5  6  1  0
  6  7  2  0
  6  8  1  0
  9 10  1  0
M  END
>  <Gold.Gold.Protein.RotatedWaterAtoms>  (96) 


>  <Gold.Id.Protein>  (96) 


>  <Gold.PLP.Chemscore.CHOScore>  (96) 
0.0000

>  <Gold.PLP.Chemscore.Hbond>  (96) 
2.6844

>  <Gold.PLP.Chemscore.Internal.Correction>  (96) 
0.0005

>  <Gold.PLP.Chemscore.Metal>  (96) 
0.0000

>  <Gold.PLP.Fitness>  (96) 
35.2084

>  <Gold.PLP.PLP>  (96) 
-27.9579

>  <Gold.PLP.ligand.clash>  (96) 
0.0000

>  <Gold.PLP.ligand.torsion>  (96) 
0.4016

>  <Gold.PLP.part.buried>  (96) 
-7.7639

>  <Gold.PLP.part.hbond>  (96) 
-5.0000

>  <Gold.PLP.part.metal>  (96) 
0.0000

>  <Gold.PLP.part.nonpolar>  (96) 
-16.1299

>  <Gold.PLP.part.repulsive>  (96) 
0.3428

>  <Gold.Protein.RotatedAtoms>  (96) 


>  <Gold.Protein.RotatedTorsions>  (96) 


>  <Gold.Protein.RotatedWaterAtoms>  (96) 


>  <Gold.Version>  (96) 
5.3.0

>  <PLP.Chemscore.CHOScore>  (96) 


>  <PLP.Chemscore.Hbond>  (96) 


>  <PLP.Chemscore.Internal.Correction>  (96) 


>  <PLP.Chemscore.Metal>  (96) 


>  <PLP.Fitness>  (96) 


>  <PLP.PLP>  (96) 


>  <PLP.ligand.clash>  (96) 


>  <PLP.ligand.torsion>  (96) 


>  <PLP.part.buried>  (96) 


>  <PLP.part.hbond>  (96) 


>  <PLP.part.metal>  (96) 


>  <PLP.part.nonpolar>  (96) 


>  <PLP.part.repulsive>  (96) 


>  <Version>  (96) 


$$$$
96|Compound_34|Compounds_3D_F|sdf|15|dock7|1
     RDKit          3D

 10  9  0  0  0  0  0  0  0  0999 V2000
   -4.5858  -12.2491   13.3485 O   0  0  0  0  0  0  0  0  0  0  0  0
   -5.6250  -12.4149   12.5166 C   0  0  0  0  0  0  0  0  0  0  0  0
   -6.0801  -11.4669   11.9202 O   0  0  0  0  0  0  0  0  0  0  0  0
   -6.2266  -13.7835   12.3253 C   0  0  0  0  0  0  0  0  0  0  0  0
   -5.1956  -14.7091   11.8491 N   0  0  0  0  0  0  0  0  0  0  0  0
   -5.2036  -15.9943   12.2556 C   0  0  0  0  0  0  0  0  0  0  0  0
   -6.0635  -16.3845   13.0155 O   0  0  0  0  0  0  0  0  0  0  0  0
   -4.0984  -16.9851   11.7454 B   0  0  0  0  0  0  0  0  0  0  0  0
   -7.3561  -13.7051   11.2958 C   0  0  0  0  0  0  0  0  0  0  0  0
   -8.3902  -12.8502   11.7875 O   0  0  0  0  0  0  0  0  0  0  0  0
  1  2  1  0
  2  3  2  0
  2  4  1  0
  4  5  1  0
  4  9  1  0
  5  6  1  0
  6  7  2  0
  6  8  1  0
  9 10  1  0
M  END
>  <Gold.Gold.Protein.RotatedWaterAtoms>  (97) 


>  <Gold.Id.Protein>  (97) 


>  <Gold.PLP.Chemscore.CHOScore>  (97) 
0.0000

>  <Gold.PLP.Chemscore.Hbond>  (97) 
1.9913

>  <Gold.PLP.Chemscore.Internal.Correction>  (97) 
0.0005

>  <Gold.PLP.Chemscore.Metal>  (97) 
0.0000

>  <Gold.PLP.Fitness>  (97) 
35.2318

>  <Gold.PLP.PLP>  (97) 
-29.9681

>  <Gold.PLP.ligand.clash>  (97) 
0.0000

>  <Gold.PLP.ligand.torsion>  (97) 
0.3553

>  <Gold.PLP.part.buried>  (97) 
-7.4585

>  <Gold.PLP.part.hbond>  (97) 
-4.8060

>  <Gold.PLP.part.metal>  (97) 
0.0000

>  <Gold.PLP.part.nonpolar>  (97) 
-17.3898

>  <Gold.PLP.part.repulsive>  (97) 
0.4231

>  <Gold.Protein.RotatedAtoms>  (97) 


>  <Gold.Protein.RotatedTorsions>  (97) 


>  <Gold.Protein.RotatedWaterAtoms>  (97) 


>  <Gold.Version>  (97) 
5.3.0

>  <PLP.Chemscore.CHOScore>  (97) 


>  <PLP.Chemscore.Hbond>  (97) 


>  <PLP.Chemscore.Internal.Correction>  (97) 


>  <PLP.Chemscore.Metal>  (97) 


>  <PLP.Fitness>  (97) 


>  <PLP.PLP>  (97) 


>  <PLP.ligand.clash>  (97) 


>  <PLP.ligand.torsion>  (97) 


>  <PLP.part.buried>  (97) 


>  <PLP.part.hbond>  (97) 


>  <PLP.part.metal>  (97) 


>  <PLP.part.nonpolar>  (97) 


>  <PLP.part.repulsive>  (97) 


>  <Version>  (97) 


$$$$
97|Compound_41|Compounds_3D_F|sdf|16|dock1|1
     RDKit          3D

  9  8  0  0  0  0  0  0  0  0999 V2000
   -9.9670  -14.1001   12.7757 O   0  0  0  0  0  0  0  0  0  0  0  0
   -8.9769  -13.6760   11.9761 C   0  0  0  0  0  0  0  0  0  0  0  0
   -9.1189  -12.6725   11.3171 O   0  0  0  0  0  0  0  0  0  0  0  0
   -7.6866  -14.4511   11.8981 C   0  0  0  0  0  0  0  0  0  0  0  0
   -7.3812  -14.7533   10.4974 N   0  0  0  0  0  0  0  0  0  0  0  0
   -8.2349  -15.4958    9.7659 C   0  0  0  0  0  0  0  0  0  0  0  0
   -9.2569  -15.9143   10.2672 O   0  0  0  0  0  0  0  0  0  0  0  0
   -7.9082  -15.8192    8.2649 B   0  0  0  0  0  0  0  0  0  0  0  0
   -6.5537  -13.6154   12.4982 C   0  0  0  0  0  0  0  0  0  0  0  0
  1  2  1  0
  2  3  2  0
  2  4  1  0
  4  5  1  0
  4  9  1  0
  5  6  1  0
  6  7  2  0
  6  8  1  0
M  END
>  <Gold.Gold.Protein.RotatedWaterAtoms>  (98) 


>  <Gold.Id.Protein>  (98) 


>  <Gold.PLP.Chemscore.CHOScore>  (98) 
0.0000

>  <Gold.PLP.Chemscore.Hbond>  (98) 
2.0000

>  <Gold.PLP.Chemscore.Internal.Correction>  (98) 
0.0000

>  <Gold.PLP.Chemscore.Metal>  (98) 
0.0000

>  <Gold.PLP.Fitness>  (98) 
29.0370

>  <Gold.PLP.PLP>  (98) 
-23.2367

>  <Gold.PLP.ligand.clash>  (98) 
0.0000

>  <Gold.PLP.ligand.torsion>  (98) 
0.0999

>  <Gold.PLP.part.buried>  (98) 
-4.7380

>  <Gold.PLP.part.hbond>  (98) 
-3.7942

>  <Gold.PLP.part.metal>  (98) 
0.0000

>  <Gold.PLP.part.nonpolar>  (98) 
-14.9959

>  <Gold.PLP.part.repulsive>  (98) 
0.3156

>  <Gold.Protein.RotatedAtoms>  (98) 


>  <Gold.Protein.RotatedTorsions>  (98) 


>  <Gold.Protein.RotatedWaterAtoms>  (98) 


>  <Gold.Version>  (98) 
5.3.0

>  <PLP.Chemscore.CHOScore>  (98) 


>  <PLP.Chemscore.Hbond>  (98) 


>  <PLP.Chemscore.Internal.Correction>  (98) 


>  <PLP.Chemscore.Metal>  (98) 


>  <PLP.Fitness>  (98) 


>  <PLP.PLP>  (98) 


>  <PLP.ligand.clash>  (98) 


>  <PLP.ligand.torsion>  (98) 


>  <PLP.part.buried>  (98) 


>  <PLP.part.hbond>  (98) 


>  <PLP.part.metal>  (98) 


>  <PLP.part.nonpolar>  (98) 


>  <PLP.part.repulsive>  (98) 


>  <Version>  (98) 


$$$$
98|Compound_41|Compounds_3D_F|sdf|16|dock2|1
     RDKit          3D

  9  8  0  0  0  0  0  0  0  0999 V2000
   -8.6689  -13.9046   10.7044 O   0  0  0  0  0  0  0  0  0  0  0  0
   -7.4442  -14.4515   10.6783 C   0  0  0  0  0  0  0  0  0  0  0  0
   -7.0495  -15.0045    9.6783 O   0  0  0  0  0  0  0  0  0  0  0  0
   -6.5595  -14.3775   11.8962 C   0  0  0  0  0  0  0  0  0  0  0  0
   -5.2756  -15.0221   11.6083 N   0  0  0  0  0  0  0  0  0  0  0  0
   -4.9579  -16.1882   12.2036 C   0  0  0  0  0  0  0  0  0  0  0  0
   -5.7350  -16.7048   12.9782 O   0  0  0  0  0  0  0  0  0  0  0  0
   -3.5827  -16.8794   11.8948 B   0  0  0  0  0  0  0  0  0  0  0  0
   -6.3226  -12.9113   12.2651 C   0  0  0  0  0  0  0  0  0  0  0  0
  1  2  1  0
  2  3  2  0
  2  4  1  0
  4  5  1  0
  4  9  1  0
  5  6  1  0
  6  7  2  0
  6  8  1  0
M  END
>  <Gold.Gold.Protein.RotatedWaterAtoms>  (99) 


>  <Gold.Id.Protein>  (99) 


>  <Gold.PLP.Chemscore.CHOScore>  (99) 
0.0000

>  <Gold.PLP.Chemscore.Hbond>  (99) 
2.0000

>  <Gold.PLP.Chemscore.Internal.Correction>  (99) 
0.0000

>  <Gold.PLP.Chemscore.Metal>  (99) 
0.0000

>  <Gold.PLP.Fitness>  (99) 
27.8231

>  <Gold.PLP.PLP>  (99) 
-21.9975

>  <Gold.PLP.ligand.clash>  (99) 
0.0000

>  <Gold.PLP.ligand.torsion>  (99) 
0.0872

>  <Gold.PLP.part.buried>  (99) 
-5.0570

>  <Gold.PLP.part.hbond>  (99) 
-2.0000

>  <Gold.PLP.part.metal>  (99) 
0.0000

>  <Gold.PLP.part.nonpolar>  (99) 
-14.9563

>  <Gold.PLP.part.repulsive>  (99) 
0.2349

>  <Gold.Protein.RotatedAtoms>  (99) 


>  <Gold.Protein.RotatedTorsions>  (99) 


>  <Gold.Protein.RotatedWaterAtoms>  (99) 


>  <Gold.Version>  (99) 
5.3.0

>  <PLP.Chemscore.CHOScore>  (99) 


>  <PLP.Chemscore.Hbond>  (99) 


>  <PLP.Chemscore.Internal.Correction>  (99) 


>  <PLP.Chemscore.Metal>  (99) 


>  <PLP.Fitness>  (99) 


>  <PLP.PLP>  (99) 


>  <PLP.ligand.clash>  (99) 


>  <PLP.ligand.torsion>  (99) 


>  <PLP.part.buried>  (99) 


>  <PLP.part.hbond>  (99) 


>  <PLP.part.metal>  (99) 


>  <PLP.part.nonpolar>  (99) 


>  <PLP.part.repulsive>  (99) 


>  <Version>  (99) 


$$$$
99|Compound_41|Compounds_3D_F|sdf|16|dock3|1
     RDKit          3D

  9  8  0  0  0  0  0  0  0  0999 V2000
   -8.5753  -14.2686   10.3887 O   0  0  0  0  0  0  0  0  0  0  0  0
   -7.2654  -14.5491   10.4615 C   0  0  0  0  0  0  0  0  0  0  0  0
   -6.6662  -14.9019    9.4726 O   0  0  0  0  0  0  0  0  0  0  0  0
   -6.5400  -14.4252   11.7768 C   0  0  0  0  0  0  0  0  0  0  0  0
   -5.1818  -14.9569   11.6385 N   0  0  0  0  0  0  0  0  0  0  0  0
   -4.8552  -16.1308   12.2133 C   0  0  0  0  0  0  0  0  0  0  0  0
   -5.6860  -16.7480   12.8455 O   0  0  0  0  0  0  0  0  0  0  0  0
   -3.4002  -16.7011   12.0646 B   0  0  0  0  0  0  0  0  0  0  0  0
   -6.4718  -12.9515   12.1837 C   0  0  0  0  0  0  0  0  0  0  0  0
  1  2  1  0
  2  3  2  0
  2  4  1  0
  4  5  1  0
  4  9  1  0
  5  6  1  0
  6  7  2  0
  6  8  1  0
M  END
>  <Gold.Gold.Protein.RotatedWaterAtoms>  (100) 


>  <Gold.Id.Protein>  (100) 


>  <Gold.PLP.Chemscore.CHOScore>  (100) 
0.0000

>  <Gold.PLP.Chemscore.Hbond>  (100) 
2.3242

>  <Gold.PLP.Chemscore.Internal.Correction>  (100) 
0.0000

>  <Gold.PLP.Chemscore.Metal>  (100) 
0.0000

>  <Gold.PLP.Fitness>  (100) 
28.3013

>  <Gold.PLP.PLP>  (100) 
-21.8156

>  <Gold.PLP.ligand.clash>  (100) 
0.0000

>  <Gold.PLP.ligand.torsion>  (100) 
0.2435

>  <Gold.PLP.part.buried>  (100) 
-3.7767

>  <Gold.PLP.part.hbond>  (100) 
-3.0000

>  <Gold.PLP.part.metal>  (100) 
0.0000

>  <Gold.PLP.part.nonpolar>  (100) 
-14.4910

>  <Gold.PLP.part.repulsive>  (100) 
0.2763

>  <Gold.Protein.RotatedAtoms>  (100) 


>  <Gold.Protein.RotatedTorsions>  (100) 


>  <Gold.Protein.RotatedWaterAtoms>  (100) 


>  <Gold.Version>  (100) 
5.3.0

>  <PLP.Chemscore.CHOScore>  (100) 


>  <PLP.Chemscore.Hbond>  (100) 


>  <PLP.Chemscore.Internal.Correction>  (100) 


>  <PLP.Chemscore.Metal>  (100) 


>  <PLP.Fitness>  (100) 


>  <PLP.PLP>  (100) 


>  <PLP.ligand.clash>  (100) 


>  <PLP.ligand.torsion>  (100) 


>  <PLP.part.buried>  (100) 


>  <PLP.part.hbond>  (100) 


>  <PLP.part.metal>  (100) 


>  <PLP.part.nonpolar>  (100) 


>  <PLP.part.repulsive>  (100) 


>  <Version>  (100) 


$$$$
100|Compound_41|Compounds_3D_F|sdf|16|dock4|1
     RDKit          3D

  9  8  0  0  0  0  0  0  0  0999 V2000
   -8.2625  -13.5335   12.7935 O   0  0  0  0  0  0  0  0  0  0  0  0
   -7.1950  -14.1413   12.2544 C   0  0  0  0  0  0  0  0  0  0  0  0
   -7.3421  -14.9449   11.3633 O   0  0  0  0  0  0  0  0  0  0  0  0
   -5.8113  -13.8231   12.7599 C   0  0  0  0  0  0  0  0  0  0  0  0
   -4.8311  -14.6592   12.0622 N   0  0  0  0  0  0  0  0  0  0  0  0
   -4.9050  -16.0016   12.1505 C   0  0  0  0  0  0  0  0  0  0  0  0
   -5.7835  -16.5183   12.8080 O   0  0  0  0  0  0  0  0  0  0  0  0
   -3.8554  -16.8976   11.4024 B   0  0  0  0  0  0  0  0  0  0  0  0
   -5.5007  -12.3476   12.4989 C   0  0  0  0  0  0  0  0  0  0  0  0
  1  2  1  0
  2  3  2  0
  2  4  1  0
  4  5  1  0
  4  9  1  0
  5  6  1  0
  6  7  2  0
  6  8  1  0
M  END
>  <Gold.Gold.Protein.RotatedWaterAtoms>  (101) 


>  <Gold.Id.Protein>  (101) 


>  <Gold.PLP.Chemscore.CHOScore>  (101) 
0.0000

>  <Gold.PLP.Chemscore.Hbond>  (101) 
1.0000

>  <Gold.PLP.Chemscore.Internal.Correction>  (101) 
0.0000

>  <Gold.PLP.Chemscore.Metal>  (101) 
0.0000

>  <Gold.PLP.Fitness>  (101) 
30.0247

>  <Gold.PLP.PLP>  (101) 
-27.0544

>  <Gold.PLP.ligand.clash>  (101) 
0.0000

>  <Gold.PLP.ligand.torsion>  (101) 
0.0148

>  <Gold.PLP.part.buried>  (101) 
-6.5023

>  <Gold.PLP.part.hbond>  (101) 
-2.3342

>  <Gold.PLP.part.metal>  (101) 
0.0000

>  <Gold.PLP.part.nonpolar>  (101) 
-18.2429

>  <Gold.PLP.part.repulsive>  (101) 
0.2343

>  <Gold.Protein.RotatedAtoms>  (101) 


>  <Gold.Protein.RotatedTorsions>  (101) 


>  <Gold.Protein.RotatedWaterAtoms>  (101) 


>  <Gold.Version>  (101) 
5.3.0

>  <PLP.Chemscore.CHOScore>  (101) 


>  <PLP.Chemscore.Hbond>  (101) 


>  <PLP.Chemscore.Internal.Correction>  (101) 


>  <PLP.Chemscore.Metal>  (101) 


>  <PLP.Fitness>  (101) 


>  <PLP.PLP>  (101) 


>  <PLP.ligand.clash>  (101) 


>  <PLP.ligand.torsion>  (101) 


>  <PLP.part.buried>  (101) 


>  <PLP.part.hbond>  (101) 


>  <PLP.part.metal>  (101) 


>  <PLP.part.nonpolar>  (101) 


>  <PLP.part.repulsive>  (101) 


>  <Version>  (101) 


$$$$
101|Compound_41|Compounds_3D_F|sdf|16|dock5|1
     RDKit          3D

  9  8  0  0  0  0  0  0  0  0999 V2000
   -4.6038  -12.3812   13.3562 O   0  0  0  0  0  0  0  0  0  0  0  0
   -5.6264  -12.4297   12.4892 C   0  0  0  0  0  0  0  0  0  0  0  0
   -6.1504  -11.4071   12.1136 O   0  0  0  0  0  0  0  0  0  0  0  0
   -6.1234  -13.7596   11.9833 C   0  0  0  0  0  0  0  0  0  0  0  0
   -5.2691  -14.8308   12.5023 N   0  0  0  0  0  0  0  0  0  0  0  0
   -5.5472  -16.1164   12.2106 C   0  0  0  0  0  0  0  0  0  0  0  0
   -6.5052  -16.3872   11.5180 O   0  0  0  0  0  0  0  0  0  0  0  0
   -4.6316  -17.2643   12.7659 B   0  0  0  0  0  0  0  0  0  0  0  0
   -7.5617  -13.9794   12.4575 C   0  0  0  0  0  0  0  0  0  0  0  0
  1  2  1  0
  2  3  2  0
  2  4  1  0
  4  5  1  0
  4  9  1  0
  5  6  1  0
  6  7  2  0
  6  8  1  0
M  END
>  <Gold.Gold.Protein.RotatedWaterAtoms>  (102) 


>  <Gold.Id.Protein>  (102) 


>  <Gold.PLP.Chemscore.CHOScore>  (102) 
0.0000

>  <Gold.PLP.Chemscore.Hbond>  (102) 
1.0000

>  <Gold.PLP.Chemscore.Internal.Correction>  (102) 
0.0000

>  <Gold.PLP.Chemscore.Metal>  (102) 
0.0000

>  <Gold.PLP.Fitness>  (102) 
30.8153

>  <Gold.PLP.PLP>  (102) 
-27.8939

>  <Gold.PLP.ligand.clash>  (102) 
0.0000

>  <Gold.PLP.ligand.torsion>  (102) 
0.0393

>  <Gold.PLP.part.buried>  (102) 
-6.9729

>  <Gold.PLP.part.hbond>  (102) 
-3.0000

>  <Gold.PLP.part.metal>  (102) 
0.0000

>  <Gold.PLP.part.nonpolar>  (102) 
-18.4477

>  <Gold.PLP.part.repulsive>  (102) 
0.4024

>  <Gold.Protein.RotatedAtoms>  (102) 


>  <Gold.Protein.RotatedTorsions>  (102) 


>  <Gold.Protein.RotatedWaterAtoms>  (102) 


>  <Gold.Version>  (102) 
5.3.0

>  <PLP.Chemscore.CHOScore>  (102) 


>  <PLP.Chemscore.Hbond>  (102) 


>  <PLP.Chemscore.Internal.Correction>  (102) 


>  <PLP.Chemscore.Metal>  (102) 


>  <PLP.Fitness>  (102) 


>  <PLP.PLP>  (102) 


>  <PLP.ligand.clash>  (102) 


>  <PLP.ligand.torsion>  (102) 


>  <PLP.part.buried>  (102) 


>  <PLP.part.hbond>  (102) 


>  <PLP.part.metal>  (102) 


>  <PLP.part.nonpolar>  (102) 


>  <PLP.part.repulsive>  (102) 


>  <Version>  (102) 


$$$$
102|Compound_41|Compounds_3D_F|sdf|16|dock6|1
     RDKit          3D

  9  8  0  0  0  0  0  0  0  0999 V2000
   -8.0875  -14.7907   12.1669 O   0  0  0  0  0  0  0  0  0  0  0  0
   -7.3953  -13.6416   12.1560 C   0  0  0  0  0  0  0  0  0  0  0  0
   -7.9072  -12.6307   11.7348 O   0  0  0  0  0  0  0  0  0  0  0  0
   -5.9782  -13.6103   12.6683 C   0  0  0  0  0  0  0  0  0  0  0  0
   -5.1631  -14.5639   11.9114 N   0  0  0  0  0  0  0  0  0  0  0  0
   -5.2898  -15.8863   12.1353 C   0  0  0  0  0  0  0  0  0  0  0  0
   -6.0793  -16.2879   12.9638 O   0  0  0  0  0  0  0  0  0  0  0  0
   -4.4171  -16.9082   11.3239 B   0  0  0  0  0  0  0  0  0  0  0  0
   -5.4059  -12.2014   12.4969 C   0  0  0  0  0  0  0  0  0  0  0  0
  1  2  1  0
  2  3  2  0
  2  4  1  0
  4  5  1  0
  4  9  1  0
  5  6  1  0
  6  7  2  0
  6  8  1  0
M  END
>  <Gold.Gold.Protein.RotatedWaterAtoms>  (103) 


>  <Gold.Id.Protein>  (103) 


>  <Gold.PLP.Chemscore.CHOScore>  (103) 
0.0000

>  <Gold.PLP.Chemscore.Hbond>  (103) 
1.0000

>  <Gold.PLP.Chemscore.Internal.Correction>  (103) 
0.0000

>  <Gold.PLP.Chemscore.Metal>  (103) 
0.0000

>  <Gold.PLP.Fitness>  (103) 
28.7391

>  <Gold.PLP.PLP>  (103) 
-26.1074

>  <Gold.PLP.ligand.clash>  (103) 
0.0000

>  <Gold.PLP.ligand.torsion>  (103) 
0.1842

>  <Gold.PLP.part.buried>  (103) 
-6.5822

>  <Gold.PLP.part.hbond>  (103) 
-1.2570

>  <Gold.PLP.part.metal>  (103) 
0.0000

>  <Gold.PLP.part.nonpolar>  (103) 
-17.8100

>  <Gold.PLP.part.repulsive>  (103) 
0.2617

>  <Gold.Protein.RotatedAtoms>  (103) 


>  <Gold.Protein.RotatedTorsions>  (103) 


>  <Gold.Protein.RotatedWaterAtoms>  (103) 


>  <Gold.Version>  (103) 
5.3.0

>  <PLP.Chemscore.CHOScore>  (103) 


>  <PLP.Chemscore.Hbond>  (103) 


>  <PLP.Chemscore.Internal.Correction>  (103) 


>  <PLP.Chemscore.Metal>  (103) 


>  <PLP.Fitness>  (103) 


>  <PLP.PLP>  (103) 


>  <PLP.ligand.clash>  (103) 


>  <PLP.ligand.torsion>  (103) 


>  <PLP.part.buried>  (103) 


>  <PLP.part.hbond>  (103) 


>  <PLP.part.metal>  (103) 


>  <PLP.part.nonpolar>  (103) 


>  <PLP.part.repulsive>  (103) 


>  <Version>  (103) 


$$$$
103|Compound_41|Compounds_3D_F|sdf|16|dock7|1
     RDKit          3D

  9  8  0  0  0  0  0  0  0  0999 V2000
   -7.4242  -14.6041   10.8503 O   0  0  0  0  0  0  0  0  0  0  0  0
   -7.2464  -13.7534   11.8722 C   0  0  0  0  0  0  0  0  0  0  0  0
   -8.1436  -13.0168   12.2096 O   0  0  0  0  0  0  0  0  0  0  0  0
   -5.9272  -13.7148   12.6001 C   0  0  0  0  0  0  0  0  0  0  0  0
   -5.0077  -14.6837   11.9983 N   0  0  0  0  0  0  0  0  0  0  0  0
   -5.1603  -15.9999   12.2421 C   0  0  0  0  0  0  0  0  0  0  0  0
   -6.0594  -16.3831   12.9602 O   0  0  0  0  0  0  0  0  0  0  0  0
   -4.1756  -17.0383   11.5968 B   0  0  0  0  0  0  0  0  0  0  0  0
   -5.3287  -12.3103   12.4950 C   0  0  0  0  0  0  0  0  0  0  0  0
  1  2  1  0
  2  3  2  0
  2  4  1  0
  4  5  1  0
  4  9  1  0
  5  6  1  0
  6  7  2  0
  6  8  1  0
M  END
>  <Gold.Gold.Protein.RotatedWaterAtoms>  (104) 


>  <Gold.Id.Protein>  (104) 


>  <Gold.PLP.Chemscore.CHOScore>  (104) 
0.0000

>  <Gold.PLP.Chemscore.Hbond>  (104) 
0.9913

>  <Gold.PLP.Chemscore.Internal.Correction>  (104) 
0.0000

>  <Gold.PLP.Chemscore.Metal>  (104) 
0.0000

>  <Gold.PLP.Fitness>  (104) 
28.9884

>  <Gold.PLP.PLP>  (104) 
-26.4114

>  <Gold.PLP.ligand.clash>  (104) 
0.0000

>  <Gold.PLP.ligand.torsion>  (104) 
0.1984

>  <Gold.PLP.part.buried>  (104) 
-6.6288

>  <Gold.PLP.part.hbond>  (104) 
-1.7085

>  <Gold.PLP.part.metal>  (104) 
0.0000

>  <Gold.PLP.part.nonpolar>  (104) 
-18.2452

>  <Gold.PLP.part.repulsive>  (104) 
0.2625

>  <Gold.Protein.RotatedAtoms>  (104) 


>  <Gold.Protein.RotatedTorsions>  (104) 


>  <Gold.Protein.RotatedWaterAtoms>  (104) 


>  <Gold.Version>  (104) 
5.3.0

>  <PLP.Chemscore.CHOScore>  (104) 


>  <PLP.Chemscore.Hbond>  (104) 


>  <PLP.Chemscore.Internal.Correction>  (104) 


>  <PLP.Chemscore.Metal>  (104) 


>  <PLP.Fitness>  (104) 


>  <PLP.PLP>  (104) 


>  <PLP.ligand.clash>  (104) 


>  <PLP.ligand.torsion>  (104) 


>  <PLP.part.buried>  (104) 


>  <PLP.part.hbond>  (104) 


>  <PLP.part.metal>  (104) 


>  <PLP.part.nonpolar>  (104) 


>  <PLP.part.repulsive>  (104) 


>  <Version>  (104) 


$$$$
104|Compound_41|Compounds_3D_F|sdf|16|dock8|1
     RDKit          3D

  9  8  0  0  0  0  0  0  0  0999 V2000
   -9.5664  -15.3213   12.4830 O   0  0  0  0  0  0  0  0  0  0  0  0
   -8.6877  -14.6499   11.7237 C   0  0  0  0  0  0  0  0  0  0  0  0
   -8.7434  -14.7305   10.5187 O   0  0  0  0  0  0  0  0  0  0  0  0
   -7.6297  -13.7948   12.3725 C   0  0  0  0  0  0  0  0  0  0  0  0
   -6.3027  -14.2905   11.9986 N   0  0  0  0  0  0  0  0  0  0  0  0
   -5.9621  -15.5680   12.2579 C   0  0  0  0  0  0  0  0  0  0  0  0
   -6.7546  -16.3082   12.8010 O   0  0  0  0  0  0  0  0  0  0  0  0
   -4.5406  -16.0996   11.8567 B   0  0  0  0  0  0  0  0  0  0  0  0
   -7.7850  -12.3473   11.9006 C   0  0  0  0  0  0  0  0  0  0  0  0
  1  2  1  0
  2  3  2  0
  2  4  1  0
  4  5  1  0
  4  9  1  0
  5  6  1  0
  6  7  2  0
  6  8  1  0
M  END
>  <Gold.Gold.Protein.RotatedWaterAtoms>  (105) 


>  <Gold.Id.Protein>  (105) 


>  <Gold.PLP.Chemscore.CHOScore>  (105) 
0.0000

>  <Gold.PLP.Chemscore.Hbond>  (105) 
1.9280

>  <Gold.PLP.Chemscore.Internal.Correction>  (105) 
0.0000

>  <Gold.PLP.Chemscore.Metal>  (105) 
0.0000

>  <Gold.PLP.Fitness>  (105) 
29.5615

>  <Gold.PLP.PLP>  (105) 
-23.7967

>  <Gold.PLP.ligand.clash>  (105) 
0.0000

>  <Gold.PLP.ligand.torsion>  (105) 
0.0096

>  <Gold.PLP.part.buried>  (105) 
-4.7497

>  <Gold.PLP.part.hbond>  (105) 
-3.5602

>  <Gold.PLP.part.metal>  (105) 
0.0000

>  <Gold.PLP.part.nonpolar>  (105) 
-15.8794

>  <Gold.PLP.part.repulsive>  (105) 
0.2612

>  <Gold.Protein.RotatedAtoms>  (105) 


>  <Gold.Protein.RotatedTorsions>  (105) 


>  <Gold.Protein.RotatedWaterAtoms>  (105) 


>  <Gold.Version>  (105) 
5.3.0

>  <PLP.Chemscore.CHOScore>  (105) 


>  <PLP.Chemscore.Hbond>  (105) 


>  <PLP.Chemscore.Internal.Correction>  (105) 


>  <PLP.Chemscore.Metal>  (105) 


>  <PLP.Fitness>  (105) 


>  <PLP.PLP>  (105) 


>  <PLP.ligand.clash>  (105) 


>  <PLP.ligand.torsion>  (105) 


>  <PLP.part.buried>  (105) 


>  <PLP.part.hbond>  (105) 


>  <PLP.part.metal>  (105) 


>  <PLP.part.nonpolar>  (105) 


>  <PLP.part.repulsive>  (105) 


>  <Version>  (105) 


$$$$
105|Compound_41|Compounds_3D_F|sdf|16|dock9|1
     RDKit          3D

  9  8  0  0  0  0  0  0  0  0999 V2000
   -9.9786  -14.2935   12.9418 O   0  0  0  0  0  0  0  0  0  0  0  0
   -9.0335  -13.8759   12.0861 C   0  0  0  0  0  0  0  0  0  0  0  0
   -9.3473  -13.4446   11.0012 O   0  0  0  0  0  0  0  0  0  0  0  0
   -7.5795  -13.9449   12.4765 C   0  0  0  0  0  0  0  0  0  0  0  0
   -6.8505  -14.7653   11.5059 N   0  0  0  0  0  0  0  0  0  0  0  0
   -6.1517  -15.8399   11.9207 C   0  0  0  0  0  0  0  0  0  0  0  0
   -6.1260  -16.1283   13.0985 O   0  0  0  0  0  0  0  0  0  0  0  0
   -5.3712  -16.7195   10.8808 B   0  0  0  0  0  0  0  0  0  0  0  0
   -6.9899  -12.5328   12.4955 C   0  0  0  0  0  0  0  0  0  0  0  0
  1  2  1  0
  2  3  2  0
  2  4  1  0
  4  5  1  0
  4  9  1  0
  5  6  1  0
  6  7  2  0
  6  8  1  0
M  END
>  <Gold.Gold.Protein.RotatedWaterAtoms>  (106) 


>  <Gold.Id.Protein>  (106) 


>  <Gold.PLP.Chemscore.CHOScore>  (106) 
0.0000

>  <Gold.PLP.Chemscore.Hbond>  (106) 
2.0000

>  <Gold.PLP.Chemscore.Internal.Correction>  (106) 
0.0000

>  <Gold.PLP.Chemscore.Metal>  (106) 
0.0000

>  <Gold.PLP.Fitness>  (106) 
29.4747

>  <Gold.PLP.PLP>  (106) 
-23.5163

>  <Gold.PLP.ligand.clash>  (106) 
0.0000

>  <Gold.PLP.ligand.torsion>  (106) 
0.0208

>  <Gold.PLP.part.buried>  (106) 
-5.3260

>  <Gold.PLP.part.hbond>  (106) 
-4.5546

>  <Gold.PLP.part.metal>  (106) 
0.0000

>  <Gold.PLP.part.nonpolar>  (106) 
-14.7016

>  <Gold.PLP.part.repulsive>  (106) 
1.4521

>  <Gold.Protein.RotatedAtoms>  (106) 


>  <Gold.Protein.RotatedTorsions>  (106) 


>  <Gold.Protein.RotatedWaterAtoms>  (106) 


>  <Gold.Version>  (106) 
5.3.0

>  <PLP.Chemscore.CHOScore>  (106) 


>  <PLP.Chemscore.Hbond>  (106) 


>  <PLP.Chemscore.Internal.Correction>  (106) 


>  <PLP.Chemscore.Metal>  (106) 


>  <PLP.Fitness>  (106) 


>  <PLP.PLP>  (106) 


>  <PLP.ligand.clash>  (106) 


>  <PLP.ligand.torsion>  (106) 


>  <PLP.part.buried>  (106) 


>  <PLP.part.hbond>  (106) 


>  <PLP.part.metal>  (106) 


>  <PLP.part.nonpolar>  (106) 


>  <PLP.part.repulsive>  (106) 


>  <Version>  (106) 


$$$$
106|Compound_43|Compounds_3D_F|sdf|17|dock1|1
     RDKit          3D

 10 10  0  0  0  0  0  0  0  0999 V2000
   -8.4957  -15.8012    9.0060 B   0  0  0  0  0  0  0  0  0  0  0  0
   -7.9199  -15.5769   10.4489 C   0  0  0  0  0  0  0  0  0  0  0  0
   -7.6925  -16.5276   11.1662 O   0  0  0  0  0  0  0  0  0  0  0  0
   -7.6783  -14.3264   10.8908 N   0  0  0  0  0  0  0  0  0  0  0  0
   -7.1410  -14.1171   12.2379 C   0  0  0  0  0  0  0  0  0  0  0  0
   -5.7541  -14.7208   12.3622 C   0  0  0  0  0  0  0  0  0  0  0  0
   -5.4936  -15.8977   12.4919 O   0  0  0  0  0  0  0  0  0  0  0  0
   -4.8647  -13.7090   12.3036 N   0  0  0  0  0  0  0  0  0  0  0  0
   -5.5050  -12.4609   12.1228 O   0  0  0  0  0  0  0  0  0  0  0  0
   -6.8911  -12.6141   12.4996 C   0  0  0  0  0  0  0  0  0  0  0  0
  1  2  1  0
  2  3  2  0
  2  4  1  0
  4  5  1  0
  5  6  1  0
  5 10  1  0
  6  7  2  0
  6  8  1  0
  8  9  1  0
  9 10  1  0
M  END
>  <Gold.Gold.Protein.RotatedWaterAtoms>  (107) 


>  <Gold.Id.Protein>  (107) 


>  <Gold.PLP.Chemscore.CHOScore>  (107) 
0.0000

>  <Gold.PLP.Chemscore.Hbond>  (107) 
1.0000

>  <Gold.PLP.Chemscore.Internal.Correction>  (107) 
0.0209

>  <Gold.PLP.Chemscore.Metal>  (107) 
0.0000

>  <Gold.PLP.Fitness>  (107) 
24.8613

>  <Gold.PLP.PLP>  (107) 
-21.8627

>  <Gold.PLP.ligand.clash>  (107) 
0.0000

>  <Gold.PLP.ligand.torsion>  (107) 
0.0112

>  <Gold.PLP.part.buried>  (107) 
-5.5765

>  <Gold.PLP.part.hbond>  (107) 
-2.3924

>  <Gold.PLP.part.metal>  (107) 
0.0000

>  <Gold.PLP.part.nonpolar>  (107) 
-14.1524

>  <Gold.PLP.part.repulsive>  (107) 
0.6930

>  <Gold.Protein.RotatedAtoms>  (107) 


>  <Gold.Protein.RotatedTorsions>  (107) 


>  <Gold.Protein.RotatedWaterAtoms>  (107) 


>  <Gold.Version>  (107) 
5.3.0

>  <PLP.Chemscore.CHOScore>  (107) 


>  <PLP.Chemscore.Hbond>  (107) 


>  <PLP.Chemscore.Internal.Correction>  (107) 


>  <PLP.Chemscore.Metal>  (107) 


>  <PLP.Fitness>  (107) 


>  <PLP.PLP>  (107) 


>  <PLP.ligand.clash>  (107) 


>  <PLP.ligand.torsion>  (107) 


>  <PLP.part.buried>  (107) 


>  <PLP.part.hbond>  (107) 


>  <PLP.part.metal>  (107) 


>  <PLP.part.nonpolar>  (107) 


>  <PLP.part.repulsive>  (107) 


>  <Version>  (107) 


$$$$
107|Compound_43|Compounds_3D_F|sdf|17|dock2|1
     RDKit          3D

 10 10  0  0  0  0  0  0  0  0999 V2000
   -9.0874  -16.1025    9.0183 B   0  0  0  0  0  0  0  0  0  0  0  0
   -8.6482  -15.7137   10.4742 C   0  0  0  0  0  0  0  0  0  0  0  0
   -9.3554  -15.9971   11.4175 O   0  0  0  0  0  0  0  0  0  0  0  0
   -7.4842  -15.0642   10.6759 N   0  0  0  0  0  0  0  0  0  0  0  0
   -7.0744  -14.7012   12.0351 C   0  0  0  0  0  0  0  0  0  0  0  0
   -5.6205  -15.0658   12.2726 C   0  0  0  0  0  0  0  0  0  0  0  0
   -5.1861  -16.1768   12.4888 O   0  0  0  0  0  0  0  0  0  0  0  0
   -4.9002  -13.9281   12.2009 N   0  0  0  0  0  0  0  0  0  0  0  0
   -5.7167  -12.8108   11.9084 O   0  0  0  0  0  0  0  0  0  0  0  0
   -7.0825  -13.1660   12.2170 C   0  0  0  0  0  0  0  0  0  0  0  0
  1  2  1  0
  2  3  2  0
  2  4  1  0
  4  5  1  0
  5  6  1  0
  5 10  1  0
  6  7  2  0
  6  8  1  0
  8  9  1  0
  9 10  1  0
M  END
>  <Gold.Gold.Protein.RotatedWaterAtoms>  (108) 


>  <Gold.Id.Protein>  (108) 


>  <Gold.PLP.Chemscore.CHOScore>  (108) 
0.0000

>  <Gold.PLP.Chemscore.Hbond>  (108) 
1.4000

>  <Gold.PLP.Chemscore.Internal.Correction>  (108) 
0.0209

>  <Gold.PLP.Chemscore.Metal>  (108) 
0.0000

>  <Gold.PLP.Fitness>  (108) 
25.9797

>  <Gold.PLP.PLP>  (108) 
-21.9686

>  <Gold.PLP.ligand.clash>  (108) 
0.0000

>  <Gold.PLP.ligand.torsion>  (108) 
0.1049

>  <Gold.PLP.part.buried>  (108) 
-4.8340

>  <Gold.PLP.part.hbond>  (108) 
-3.9340

>  <Gold.PLP.part.metal>  (108) 
0.0000

>  <Gold.PLP.part.nonpolar>  (108) 
-13.5054

>  <Gold.PLP.part.repulsive>  (108) 
0.6483

>  <Gold.Protein.RotatedAtoms>  (108) 


>  <Gold.Protein.RotatedTorsions>  (108) 


>  <Gold.Protein.RotatedWaterAtoms>  (108) 


>  <Gold.Version>  (108) 
5.3.0

>  <PLP.Chemscore.CHOScore>  (108) 


>  <PLP.Chemscore.Hbond>  (108) 


>  <PLP.Chemscore.Internal.Correction>  (108) 


>  <PLP.Chemscore.Metal>  (108) 


>  <PLP.Fitness>  (108) 


>  <PLP.PLP>  (108) 


>  <PLP.ligand.clash>  (108) 


>  <PLP.ligand.torsion>  (108) 


>  <PLP.part.buried>  (108) 


>  <PLP.part.hbond>  (108) 


>  <PLP.part.metal>  (108) 


>  <PLP.part.nonpolar>  (108) 


>  <PLP.part.repulsive>  (108) 


>  <Version>  (108) 


$$$$
108|Compound_43|Compounds_3D_F|sdf|17|dock3|1
     RDKit          3D

 10 10  0  0  0  0  0  0  0  0999 V2000
   -8.8794  -16.0947    8.8096 B   0  0  0  0  0  0  0  0  0  0  0  0
   -8.5005  -15.7454   10.2922 C   0  0  0  0  0  0  0  0  0  0  0  0
   -9.1980  -16.1342   11.2046 O   0  0  0  0  0  0  0  0  0  0  0  0
   -7.3990  -15.0126   10.5512 N   0  0  0  0  0  0  0  0  0  0  0  0
   -7.0455  -14.6863   11.9353 C   0  0  0  0  0  0  0  0  0  0  0  0
   -5.5866  -15.0055   12.2059 C   0  0  0  0  0  0  0  0  0  0  0  0
   -5.1169  -16.1070   12.3950 O   0  0  0  0  0  0  0  0  0  0  0  0
   -4.9086  -13.8399   12.1993 N   0  0  0  0  0  0  0  0  0  0  0  0
   -5.7579  -12.7435   11.9220 O   0  0  0  0  0  0  0  0  0  0  0  0
   -7.1180  -13.1606   12.1731 C   0  0  0  0  0  0  0  0  0  0  0  0
  1  2  1  0
  2  3  2  0
  2  4  1  0
  4  5  1  0
  5  6  1  0
  5 10  1  0
  6  7  2  0
  6  8  1  0
  8  9  1  0
  9 10  1  0
M  END
>  <Gold.Gold.Protein.RotatedWaterAtoms>  (109) 


>  <Gold.Id.Protein>  (109) 


>  <Gold.PLP.Chemscore.CHOScore>  (109) 
0.0000

>  <Gold.PLP.Chemscore.Hbond>  (109) 
1.0000

>  <Gold.PLP.Chemscore.Internal.Correction>  (109) 
0.0209

>  <Gold.PLP.Chemscore.Metal>  (109) 
0.0000

>  <Gold.PLP.Fitness>  (109) 
25.1592

>  <Gold.PLP.PLP>  (109) 
-22.2646

>  <Gold.PLP.ligand.clash>  (109) 
0.0000

>  <Gold.PLP.ligand.torsion>  (109) 
0.0632

>  <Gold.PLP.part.buried>  (109) 
-5.6706

>  <Gold.PLP.part.hbond>  (109) 
-3.8964

>  <Gold.PLP.part.metal>  (109) 
0.0000

>  <Gold.PLP.part.nonpolar>  (109) 
-13.4513

>  <Gold.PLP.part.repulsive>  (109) 
0.6617

>  <Gold.Protein.RotatedAtoms>  (109) 


>  <Gold.Protein.RotatedTorsions>  (109) 


>  <Gold.Protein.RotatedWaterAtoms>  (109) 


>  <Gold.Version>  (109) 
5.3.0

>  <PLP.Chemscore.CHOScore>  (109) 


>  <PLP.Chemscore.Hbond>  (109) 


>  <PLP.Chemscore.Internal.Correction>  (109) 


>  <PLP.Chemscore.Metal>  (109) 


>  <PLP.Fitness>  (109) 


>  <PLP.PLP>  (109) 


>  <PLP.ligand.clash>  (109) 


>  <PLP.ligand.torsion>  (109) 


>  <PLP.part.buried>  (109) 


>  <PLP.part.hbond>  (109) 


>  <PLP.part.metal>  (109) 


>  <PLP.part.nonpolar>  (109) 


>  <PLP.part.repulsive>  (109) 


>  <Version>  (109) 


$$$$
109|Compound_48|Compounds_3D_F|sdf|18|dock1|1
     RDKit          3D

 10  9  0  0  0  0  0  0  0  0999 V2000
   -8.8138  -14.7979   10.0553 O   0  0  0  0  0  0  0  0  0  0  0  0
   -8.6760  -14.0425   11.4707 P   0  0  0  0  0  0  0  0  0  0  0  0
   -9.0473  -12.6193   11.3076 O   0  0  0  0  0  0  0  0  0  0  0  0
   -9.6569  -14.7340   12.5443 O   0  0  0  0  0  0  0  0  0  0  0  0
   -6.9537  -14.1595   12.0564 C   0  0  0  0  0  0  0  0  0  0  0  0
   -6.3886  -15.5373   11.7051 C   0  0  0  0  0  0  0  0  0  0  0  0
   -5.6446  -15.4538   10.4455 N   0  0  0  0  0  0  0  0  0  0  0  0
   -6.1060  -16.0831    9.3469 C   0  0  0  0  0  0  0  0  0  0  0  0
   -7.1376  -16.7176    9.4011 O   0  0  0  0  0  0  0  0  0  0  0  0
   -5.3086  -15.9937    7.9978 B   0  0  0  0  0  0  0  0  0  0  0  0
  1  2  1  0
  2  3  2  0
  2  4  1  0
  2  5  1  0
  5  6  1  0
  6  7  1  0
  7  8  1  0
  8  9  2  0
  8 10  1  0
M  END
>  <Gold.Gold.Protein.RotatedWaterAtoms>  (110) 


>  <Gold.Id.Protein>  (110) 


>  <Gold.PLP.Chemscore.CHOScore>  (110) 
0.0000

>  <Gold.PLP.Chemscore.Hbond>  (110) 
4.0000

>  <Gold.PLP.Chemscore.Internal.Correction>  (110) 
0.0006

>  <Gold.PLP.Chemscore.Metal>  (110) 
0.0000

>  <Gold.PLP.Fitness>  (110) 
31.3251

>  <Gold.PLP.PLP>  (110) 
-20.8134

>  <Gold.PLP.ligand.clash>  (110) 
0.0000

>  <Gold.PLP.ligand.torsion>  (110) 
0.7444

>  <Gold.PLP.part.buried>  (110) 
-3.5864

>  <Gold.PLP.part.hbond>  (110) 
-4.7313

>  <Gold.PLP.part.metal>  (110) 
0.0000

>  <Gold.PLP.part.nonpolar>  (110) 
-12.8564

>  <Gold.PLP.part.repulsive>  (110) 
0.2298

>  <Gold.Protein.RotatedAtoms>  (110) 


>  <Gold.Protein.RotatedTorsions>  (110) 


>  <Gold.Protein.RotatedWaterAtoms>  (110) 


>  <Gold.Version>  (110) 
5.3.0

>  <PLP.Chemscore.CHOScore>  (110) 


>  <PLP.Chemscore.Hbond>  (110) 


>  <PLP.Chemscore.Internal.Correction>  (110) 


>  <PLP.Chemscore.Metal>  (110) 


>  <PLP.Fitness>  (110) 


>  <PLP.PLP>  (110) 


>  <PLP.ligand.clash>  (110) 


>  <PLP.ligand.torsion>  (110) 


>  <PLP.part.buried>  (110) 


>  <PLP.part.hbond>  (110) 


>  <PLP.part.metal>  (110) 


>  <PLP.part.nonpolar>  (110) 


>  <PLP.part.repulsive>  (110) 


>  <Version>  (110) 


$$$$
110|Compound_48|Compounds_3D_F|sdf|18|dock2|1
     RDKit          3D

 10  9  0  0  0  0  0  0  0  0999 V2000
   -9.1518  -14.2998   10.1289 O   0  0  0  0  0  0  0  0  0  0  0  0
   -8.7494  -13.6389   11.5411 P   0  0  0  0  0  0  0  0  0  0  0  0
   -8.8119  -12.1645   11.4304 O   0  0  0  0  0  0  0  0  0  0  0  0
   -9.7764  -14.1365   12.6770 O   0  0  0  0  0  0  0  0  0  0  0  0
   -7.0561  -14.1449   11.9879 C   0  0  0  0  0  0  0  0  0  0  0  0
   -6.4335  -14.9224   10.8264 C   0  0  0  0  0  0  0  0  0  0  0  0
   -5.0759  -15.3381   11.1885 N   0  0  0  0  0  0  0  0  0  0  0  0
   -4.8649  -16.5533   11.7312 C   0  0  0  0  0  0  0  0  0  0  0  0
   -5.7991  -17.3029   11.9187 O   0  0  0  0  0  0  0  0  0  0  0  0
   -3.4104  -16.9982   12.1194 B   0  0  0  0  0  0  0  0  0  0  0  0
  1  2  1  0
  2  3  2  0
  2  4  1  0
  2  5  1  0
  5  6  1  0
  6  7  1  0
  7  8  1  0
  8  9  2  0
  8 10  1  0
M  END
>  <Gold.Gold.Protein.RotatedWaterAtoms>  (111) 


>  <Gold.Id.Protein>  (111) 


>  <Gold.PLP.Chemscore.CHOScore>  (111) 
0.0000

>  <Gold.PLP.Chemscore.Hbond>  (111) 
3.8542

>  <Gold.PLP.Chemscore.Internal.Correction>  (111) 
0.0006

>  <Gold.PLP.Chemscore.Metal>  (111) 
0.0000

>  <Gold.PLP.Fitness>  (111) 
34.9284

>  <Gold.PLP.PLP>  (111) 
-23.8502

>  <Gold.PLP.ligand.clash>  (111) 
0.0000

>  <Gold.PLP.ligand.torsion>  (111) 
0.2426

>  <Gold.PLP.part.buried>  (111) 
-4.2478

>  <Gold.PLP.part.hbond>  (111) 
-4.9565

>  <Gold.PLP.part.metal>  (111) 
0.0000

>  <Gold.PLP.part.nonpolar>  (111) 
-14.2619

>  <Gold.PLP.part.repulsive>  (111) 
0.2420

>  <Gold.Protein.RotatedAtoms>  (111) 


>  <Gold.Protein.RotatedTorsions>  (111) 


>  <Gold.Protein.RotatedWaterAtoms>  (111) 


>  <Gold.Version>  (111) 
5.3.0

>  <PLP.Chemscore.CHOScore>  (111) 


>  <PLP.Chemscore.Hbond>  (111) 


>  <PLP.Chemscore.Internal.Correction>  (111) 


>  <PLP.Chemscore.Metal>  (111) 


>  <PLP.Fitness>  (111) 


>  <PLP.PLP>  (111) 


>  <PLP.ligand.clash>  (111) 


>  <PLP.ligand.torsion>  (111) 


>  <PLP.part.buried>  (111) 


>  <PLP.part.hbond>  (111) 


>  <PLP.part.metal>  (111) 


>  <PLP.part.nonpolar>  (111) 


>  <PLP.part.repulsive>  (111) 


>  <Version>  (111) 


$$$$
111|Compound_48|Compounds_3D_F|sdf|18|dock3|1
     RDKit          3D

 10  9  0  0  0  0  0  0  0  0999 V2000
   -8.9406  -14.7306   10.1515 O   0  0  0  0  0  0  0  0  0  0  0  0
   -8.7746  -13.9188   11.5323 P   0  0  0  0  0  0  0  0  0  0  0  0
   -9.0561  -12.4850   11.2975 O   0  0  0  0  0  0  0  0  0  0  0  0
   -9.8094  -14.4981   12.6215 O   0  0  0  0  0  0  0  0  0  0  0  0
   -7.0703  -14.1119   12.1492 C   0  0  0  0  0  0  0  0  0  0  0  0
   -6.7824  -15.5944   12.3953 C   0  0  0  0  0  0  0  0  0  0  0  0
   -5.3451  -15.8430   12.2553 N   0  0  0  0  0  0  0  0  0  0  0  0
   -4.9098  -17.0054   11.7308 C   0  0  0  0  0  0  0  0  0  0  0  0
   -5.7081  -17.8451   11.3740 O   0  0  0  0  0  0  0  0  0  0  0  0
   -3.3700  -17.2715   11.5813 B   0  0  0  0  0  0  0  0  0  0  0  0
  1  2  1  0
  2  3  2  0
  2  4  1  0
  2  5  1  0
  5  6  1  0
  6  7  1  0
  7  8  1  0
  8  9  2  0
  8 10  1  0
M  END
>  <Gold.Gold.Protein.RotatedWaterAtoms>  (112) 


>  <Gold.Id.Protein>  (112) 


>  <Gold.PLP.Chemscore.CHOScore>  (112) 
0.0000

>  <Gold.PLP.Chemscore.Hbond>  (112) 
3.0000

>  <Gold.PLP.Chemscore.Internal.Correction>  (112) 
0.0006

>  <Gold.PLP.Chemscore.Metal>  (112) 
0.0000

>  <Gold.PLP.Fitness>  (112) 
31.9179

>  <Gold.PLP.PLP>  (112) 
-23.5837

>  <Gold.PLP.ligand.clash>  (112) 
0.0000

>  <Gold.PLP.ligand.torsion>  (112) 
0.3332

>  <Gold.PLP.part.buried>  (112) 
-4.7109

>  <Gold.PLP.part.hbond>  (112) 
-4.2280

>  <Gold.PLP.part.metal>  (112) 
0.0000

>  <Gold.PLP.part.nonpolar>  (112) 
-14.7907

>  <Gold.PLP.part.repulsive>  (112) 
0.1810

>  <Gold.Protein.RotatedAtoms>  (112) 


>  <Gold.Protein.RotatedTorsions>  (112) 


>  <Gold.Protein.RotatedWaterAtoms>  (112) 


>  <Gold.Version>  (112) 
5.3.0

>  <PLP.Chemscore.CHOScore>  (112) 


>  <PLP.Chemscore.Hbond>  (112) 


>  <PLP.Chemscore.Internal.Correction>  (112) 


>  <PLP.Chemscore.Metal>  (112) 


>  <PLP.Fitness>  (112) 


>  <PLP.PLP>  (112) 


>  <PLP.ligand.clash>  (112) 


>  <PLP.ligand.torsion>  (112) 


>  <PLP.part.buried>  (112) 


>  <PLP.part.hbond>  (112) 


>  <PLP.part.metal>  (112) 


>  <PLP.part.nonpolar>  (112) 


>  <PLP.part.repulsive>  (112) 


>  <Version>  (112) 


$$$$
112|Compound_48|Compounds_3D_F|sdf|18|dock4|1
     RDKit          3D

 10  9  0  0  0  0  0  0  0  0999 V2000
   -9.7387  -14.0319   12.5014 O   0  0  0  0  0  0  0  0  0  0  0  0
   -8.5328  -14.6185   11.6098 P   0  0  0  0  0  0  0  0  0  0  0  0
   -8.0981  -15.9198   12.1645 O   0  0  0  0  0  0  0  0  0  0  0  0
   -9.0375  -14.8221   10.0944 O   0  0  0  0  0  0  0  0  0  0  0  0
   -7.1351  -13.4486   11.6337 C   0  0  0  0  0  0  0  0  0  0  0  0
   -6.0225  -14.0023   12.5263 C   0  0  0  0  0  0  0  0  0  0  0  0
   -5.1042  -14.8095   11.7188 N   0  0  0  0  0  0  0  0  0  0  0  0
   -4.9976  -16.1343   11.9409 C   0  0  0  0  0  0  0  0  0  0  0  0
   -5.6626  -16.6580   12.8088 O   0  0  0  0  0  0  0  0  0  0  0  0
   -4.0134  -16.9988   11.0759 B   0  0  0  0  0  0  0  0  0  0  0  0
  1  2  1  0
  2  3  2  0
  2  4  1  0
  2  5  1  0
  5  6  1  0
  6  7  1  0
  7  8  1  0
  8  9  2  0
  8 10  1  0
M  END
>  <Gold.Gold.Protein.RotatedWaterAtoms>  (113) 


>  <Gold.Id.Protein>  (113) 


>  <Gold.PLP.Chemscore.CHOScore>  (113) 
0.0000

>  <Gold.PLP.Chemscore.Hbond>  (113) 
3.0000

>  <Gold.PLP.Chemscore.Internal.Correction>  (113) 
0.0006

>  <Gold.PLP.Chemscore.Metal>  (113) 
0.0000

>  <Gold.PLP.Fitness>  (113) 
35.5700

>  <Gold.PLP.PLP>  (113) 
-27.4908

>  <Gold.PLP.ligand.clash>  (113) 
0.0000

>  <Gold.PLP.ligand.torsion>  (113) 
0.4607

>  <Gold.PLP.part.buried>  (113) 
-7.0445

>  <Gold.PLP.part.hbond>  (113) 
-4.5963

>  <Gold.PLP.part.metal>  (113) 
0.0000

>  <Gold.PLP.part.nonpolar>  (113) 
-15.5298

>  <Gold.PLP.part.repulsive>  (113) 
0.2171

>  <Gold.Protein.RotatedAtoms>  (113) 


>  <Gold.Protein.RotatedTorsions>  (113) 


>  <Gold.Protein.RotatedWaterAtoms>  (113) 


>  <Gold.Version>  (113) 
5.3.0

>  <PLP.Chemscore.CHOScore>  (113) 


>  <PLP.Chemscore.Hbond>  (113) 


>  <PLP.Chemscore.Internal.Correction>  (113) 


>  <PLP.Chemscore.Metal>  (113) 


>  <PLP.Fitness>  (113) 


>  <PLP.PLP>  (113) 


>  <PLP.ligand.clash>  (113) 


>  <PLP.ligand.torsion>  (113) 


>  <PLP.part.buried>  (113) 


>  <PLP.part.hbond>  (113) 


>  <PLP.part.metal>  (113) 


>  <PLP.part.nonpolar>  (113) 


>  <PLP.part.repulsive>  (113) 


>  <Version>  (113) 


$$$$
113|Compound_48|Compounds_3D_F|sdf|18|dock5|1
     RDKit          3D

 10  9  0  0  0  0  0  0  0  0999 V2000
  -14.0873  -18.1335   12.8001 O   0  0  0  0  0  0  0  0  0  0  0  0
  -12.8576  -18.6482   11.8967 P   0  0  0  0  0  0  0  0  0  0  0  0
  -11.6592  -17.8287   12.1833 O   0  0  0  0  0  0  0  0  0  0  0  0
  -12.5490  -20.1904   12.2413 O   0  0  0  0  0  0  0  0  0  0  0  0
  -13.2933  -18.4941   10.1334 C   0  0  0  0  0  0  0  0  0  0  0  0
  -14.5017  -19.3817    9.8277 C   0  0  0  0  0  0  0  0  0  0  0  0
  -14.3207  -20.0209    8.5217 N   0  0  0  0  0  0  0  0  0  0  0  0
  -13.7993  -21.2610    8.4444 C   0  0  0  0  0  0  0  0  0  0  0  0
  -13.4809  -21.8479    9.4563 O   0  0  0  0  0  0  0  0  0  0  0  0
  -13.6052  -21.9454    7.0452 B   0  0  0  0  0  0  0  0  0  0  0  0
  1  2  1  0
  2  3  2  0
  2  4  1  0
  2  5  1  0
  5  6  1  0
  6  7  1  0
  7  8  1  0
  8  9  2  0
  8 10  1  0
M  END
>  <Gold.Gold.Protein.RotatedWaterAtoms>  (114) 


>  <Gold.Id.Protein>  (114) 


>  <Gold.PLP.Chemscore.CHOScore>  (114) 
0.0000

>  <Gold.PLP.Chemscore.Hbond>  (114) 
3.8850

>  <Gold.PLP.Chemscore.Internal.Correction>  (114) 
0.0003

>  <Gold.PLP.Chemscore.Metal>  (114) 
0.0000

>  <Gold.PLP.Fitness>  (114) 
32.1752

>  <Gold.PLP.PLP>  (114) 
-21.4371

>  <Gold.PLP.ligand.clash>  (114) 
0.0000

>  <Gold.PLP.ligand.torsion>  (114) 
0.4586

>  <Gold.PLP.part.buried>  (114) 
-3.9689

>  <Gold.PLP.part.hbond>  (114) 
-3.9848

>  <Gold.PLP.part.metal>  (114) 
0.0000

>  <Gold.PLP.part.nonpolar>  (114) 
-13.8623

>  <Gold.PLP.part.repulsive>  (114) 
0.2003

>  <Gold.Protein.RotatedAtoms>  (114) 


>  <Gold.Protein.RotatedTorsions>  (114) 


>  <Gold.Protein.RotatedWaterAtoms>  (114) 


>  <Gold.Version>  (114) 
5.3.0

>  <PLP.Chemscore.CHOScore>  (114) 


>  <PLP.Chemscore.Hbond>  (114) 


>  <PLP.Chemscore.Internal.Correction>  (114) 


>  <PLP.Chemscore.Metal>  (114) 


>  <PLP.Fitness>  (114) 


>  <PLP.PLP>  (114) 


>  <PLP.ligand.clash>  (114) 


>  <PLP.ligand.torsion>  (114) 


>  <PLP.part.buried>  (114) 


>  <PLP.part.hbond>  (114) 


>  <PLP.part.metal>  (114) 


>  <PLP.part.nonpolar>  (114) 


>  <PLP.part.repulsive>  (114) 


>  <Version>  (114) 


$$$$
114|Compound_48|Compounds_3D_F|sdf|18|dock6|1
     RDKit          3D

 10  9  0  0  0  0  0  0  0  0999 V2000
   -9.0186  -14.3522   10.5335 O   0  0  0  0  0  0  0  0  0  0  0  0
   -8.3121  -13.8350   11.8850 P   0  0  0  0  0  0  0  0  0  0  0  0
   -7.6887  -12.5153   11.6409 O   0  0  0  0  0  0  0  0  0  0  0  0
   -9.4168  -13.7004   13.0488 O   0  0  0  0  0  0  0  0  0  0  0  0
   -7.0322  -15.0282   12.3961 C   0  0  0  0  0  0  0  0  0  0  0  0
   -5.6772  -14.3213   12.4705 C   0  0  0  0  0  0  0  0  0  0  0  0
   -4.6977  -15.0563   11.6660 N   0  0  0  0  0  0  0  0  0  0  0  0
   -4.4736  -16.3634   11.9050 C   0  0  0  0  0  0  0  0  0  0  0  0
   -5.0838  -16.9311   12.7854 O   0  0  0  0  0  0  0  0  0  0  0  0
   -3.4239  -17.1505   11.0432 B   0  0  0  0  0  0  0  0  0  0  0  0
  1  2  1  0
  2  3  2  0
  2  4  1  0
  2  5  1  0
  5  6  1  0
  6  7  1  0
  7  8  1  0
  8  9  2  0
  8 10  1  0
M  END
>  <Gold.Gold.Protein.RotatedWaterAtoms>  (115) 


>  <Gold.Id.Protein>  (115) 


>  <Gold.PLP.Chemscore.CHOScore>  (115) 
0.0000

>  <Gold.PLP.Chemscore.Hbond>  (115) 
2.9920

>  <Gold.PLP.Chemscore.Internal.Correction>  (115) 
0.0003

>  <Gold.PLP.Chemscore.Metal>  (115) 
0.0000

>  <Gold.PLP.Fitness>  (115) 
34.6492

>  <Gold.PLP.PLP>  (115) 
-26.4252

>  <Gold.PLP.ligand.clash>  (115) 
0.0000

>  <Gold.PLP.ligand.torsion>  (115) 
0.3762

>  <Gold.PLP.part.buried>  (115) 
-7.1524

>  <Gold.PLP.part.hbond>  (115) 
-4.5576

>  <Gold.PLP.part.metal>  (115) 
0.0000

>  <Gold.PLP.part.nonpolar>  (115) 
-15.5365

>  <Gold.PLP.part.repulsive>  (115) 
0.2853

>  <Gold.Protein.RotatedAtoms>  (115) 


>  <Gold.Protein.RotatedTorsions>  (115) 


>  <Gold.Protein.RotatedWaterAtoms>  (115) 


>  <Gold.Version>  (115) 
5.3.0

>  <PLP.Chemscore.CHOScore>  (115) 


>  <PLP.Chemscore.Hbond>  (115) 


>  <PLP.Chemscore.Internal.Correction>  (115) 


>  <PLP.Chemscore.Metal>  (115) 


>  <PLP.Fitness>  (115) 


>  <PLP.PLP>  (115) 


>  <PLP.ligand.clash>  (115) 


>  <PLP.ligand.torsion>  (115) 


>  <PLP.part.buried>  (115) 


>  <PLP.part.hbond>  (115) 


>  <PLP.part.metal>  (115) 


>  <PLP.part.nonpolar>  (115) 


>  <PLP.part.repulsive>  (115) 


>  <Version>  (115) 


$$$$
115|Compound_48|Compounds_3D_F|sdf|18|dock7|1
     RDKit          3D

 10  9  0  0  0  0  0  0  0  0999 V2000
   -9.3390  -14.8189   10.1482 O   0  0  0  0  0  0  0  0  0  0  0  0
   -8.7218  -14.5309   11.6074 P   0  0  0  0  0  0  0  0  0  0  0  0
   -7.8416  -13.3430   11.5441 O   0  0  0  0  0  0  0  0  0  0  0  0
   -9.9180  -14.2582   12.6502 O   0  0  0  0  0  0  0  0  0  0  0  0
   -7.7556  -15.9766   12.1543 C   0  0  0  0  0  0  0  0  0  0  0  0
   -6.7149  -16.3267   11.0886 C   0  0  0  0  0  0  0  0  0  0  0  0
   -7.3896  -16.5938    9.8157 N   0  0  0  0  0  0  0  0  0  0  0  0
   -6.9821  -15.9705    8.6927 C   0  0  0  0  0  0  0  0  0  0  0  0
   -6.0561  -15.1892    8.7361 O   0  0  0  0  0  0  0  0  0  0  0  0
   -7.7054  -16.2567    7.3292 B   0  0  0  0  0  0  0  0  0  0  0  0
  1  2  1  0
  2  3  2  0
  2  4  1  0
  2  5  1  0
  5  6  1  0
  6  7  1  0
  7  8  1  0
  8  9  2  0
  8 10  1  0
M  END
>  <Gold.Gold.Protein.RotatedWaterAtoms>  (116) 


>  <Gold.Id.Protein>  (116) 


>  <Gold.PLP.Chemscore.CHOScore>  (116) 
0.0000

>  <Gold.PLP.Chemscore.Hbond>  (116) 
3.9500

>  <Gold.PLP.Chemscore.Internal.Correction>  (116) 
0.0003

>  <Gold.PLP.Chemscore.Metal>  (116) 
0.0000

>  <Gold.PLP.Fitness>  (116) 
32.0684

>  <Gold.PLP.PLP>  (116) 
-20.4039

>  <Gold.PLP.ligand.clash>  (116) 
0.0029

>  <Gold.PLP.ligand.torsion>  (116) 
0.0915

>  <Gold.PLP.part.buried>  (116) 
-4.9380

>  <Gold.PLP.part.hbond>  (116) 
-5.5609

>  <Gold.PLP.part.metal>  (116) 
0.0000

>  <Gold.PLP.part.nonpolar>  (116) 
-11.0319

>  <Gold.PLP.part.repulsive>  (116) 
0.2928

>  <Gold.Protein.RotatedAtoms>  (116) 


>  <Gold.Protein.RotatedTorsions>  (116) 


>  <Gold.Protein.RotatedWaterAtoms>  (116) 


>  <Gold.Version>  (116) 
5.3.0

>  <PLP.Chemscore.CHOScore>  (116) 


>  <PLP.Chemscore.Hbond>  (116) 


>  <PLP.Chemscore.Internal.Correction>  (116) 


>  <PLP.Chemscore.Metal>  (116) 


>  <PLP.Fitness>  (116) 


>  <PLP.PLP>  (116) 


>  <PLP.ligand.clash>  (116) 


>  <PLP.ligand.torsion>  (116) 


>  <PLP.part.buried>  (116) 


>  <PLP.part.hbond>  (116) 


>  <PLP.part.metal>  (116) 


>  <PLP.part.nonpolar>  (116) 


>  <PLP.part.repulsive>  (116) 


>  <Version>  (116) 


$$$$
116|Compound_48|Compounds_3D_F|sdf|18|dock8|1
     RDKit          3D

 10  9  0  0  0  0  0  0  0  0999 V2000
   -8.7274  -14.9199    9.8960 O   0  0  0  0  0  0  0  0  0  0  0  0
   -8.6017  -14.2486   11.3543 P   0  0  0  0  0  0  0  0  0  0  0  0
   -9.7021  -13.2778   11.5460 O   0  0  0  0  0  0  0  0  0  0  0  0
   -8.6942  -15.3950   12.4811 O   0  0  0  0  0  0  0  0  0  0  0  0
   -7.0001  -13.3888   11.4910 C   0  0  0  0  0  0  0  0  0  0  0  0
   -6.1446  -14.0722   12.5598 C   0  0  0  0  0  0  0  0  0  0  0  0
   -5.0084  -14.7421   11.9217 N   0  0  0  0  0  0  0  0  0  0  0  0
   -4.8115  -16.0618   12.1094 C   0  0  0  0  0  0  0  0  0  0  0  0
   -5.5757  -16.6948   12.8059 O   0  0  0  0  0  0  0  0  0  0  0  0
   -3.5939  -16.7791   11.4259 B   0  0  0  0  0  0  0  0  0  0  0  0
  1  2  1  0
  2  3  2  0
  2  4  1  0
  2  5  1  0
  5  6  1  0
  6  7  1  0
  7  8  1  0
  8  9  2  0
  8 10  1  0
M  END
>  <Gold.Gold.Protein.RotatedWaterAtoms>  (117) 


>  <Gold.Id.Protein>  (117) 


>  <Gold.PLP.Chemscore.CHOScore>  (117) 
0.0000

>  <Gold.PLP.Chemscore.Hbond>  (117) 
3.9913

>  <Gold.PLP.Chemscore.Internal.Correction>  (117) 
0.0003

>  <Gold.PLP.Chemscore.Metal>  (117) 
0.0000

>  <Gold.PLP.Fitness>  (117) 
35.7885

>  <Gold.PLP.PLP>  (117) 
-24.6069

>  <Gold.PLP.ligand.clash>  (117) 
0.0000

>  <Gold.PLP.ligand.torsion>  (117) 
0.3962

>  <Gold.PLP.part.buried>  (117) 
-4.6057

>  <Gold.PLP.part.hbond>  (117) 
-4.6522

>  <Gold.PLP.part.metal>  (117) 
0.0000

>  <Gold.PLP.part.nonpolar>  (117) 
-16.1152

>  <Gold.PLP.part.repulsive>  (117) 
0.2804

>  <Gold.Protein.RotatedAtoms>  (117) 


>  <Gold.Protein.RotatedTorsions>  (117) 


>  <Gold.Protein.RotatedWaterAtoms>  (117) 


>  <Gold.Version>  (117) 
5.3.0

>  <PLP.Chemscore.CHOScore>  (117) 


>  <PLP.Chemscore.Hbond>  (117) 


>  <PLP.Chemscore.Internal.Correction>  (117) 


>  <PLP.Chemscore.Metal>  (117) 


>  <PLP.Fitness>  (117) 


>  <PLP.PLP>  (117) 


>  <PLP.ligand.clash>  (117) 


>  <PLP.ligand.torsion>  (117) 


>  <PLP.part.buried>  (117) 


>  <PLP.part.hbond>  (117) 


>  <PLP.part.metal>  (117) 


>  <PLP.part.nonpolar>  (117) 


>  <PLP.part.repulsive>  (117) 


>  <Version>  (117) 


$$$$
117|Compound_48|Compounds_3D_F|sdf|18|dock9|1
     RDKit          3D

 10  9  0  0  0  0  0  0  0  0999 V2000
  -13.9217  -18.2576   12.5008 O   0  0  0  0  0  0  0  0  0  0  0  0
  -12.5392  -18.8211   11.8972 P   0  0  0  0  0  0  0  0  0  0  0  0
  -11.4541  -17.8504   12.1625 O   0  0  0  0  0  0  0  0  0  0  0  0
  -12.1842  -20.2279   12.5954 O   0  0  0  0  0  0  0  0  0  0  0  0
  -12.7151  -19.0615   10.0988 C   0  0  0  0  0  0  0  0  0  0  0  0
  -14.1998  -19.0735    9.7291 C   0  0  0  0  0  0  0  0  0  0  0  0
  -14.4068  -19.9394    8.5654 N   0  0  0  0  0  0  0  0  0  0  0  0
  -14.1850  -21.2649    8.6633 C   0  0  0  0  0  0  0  0  0  0  0  0
  -13.8151  -21.7408    9.7152 O   0  0  0  0  0  0  0  0  0  0  0  0
  -14.4065  -22.1923    7.4162 B   0  0  0  0  0  0  0  0  0  0  0  0
  1  2  1  0
  2  3  2  0
  2  4  1  0
  2  5  1  0
  5  6  1  0
  6  7  1  0
  7  8  1  0
  8  9  2  0
  8 10  1  0
M  END
>  <Gold.Gold.Protein.RotatedWaterAtoms>  (118) 


>  <Gold.Id.Protein>  (118) 


>  <Gold.PLP.Chemscore.CHOScore>  (118) 
0.0000

>  <Gold.PLP.Chemscore.Hbond>  (118) 
3.9825

>  <Gold.PLP.Chemscore.Internal.Correction>  (118) 
0.0003

>  <Gold.PLP.Chemscore.Metal>  (118) 
0.0000

>  <Gold.PLP.Fitness>  (118) 
33.3023

>  <Gold.PLP.PLP>  (118) 
-22.4481

>  <Gold.PLP.ligand.clash>  (118) 
0.0000

>  <Gold.PLP.ligand.torsion>  (118) 
0.5468

>  <Gold.PLP.part.buried>  (118) 
-3.8395

>  <Gold.PLP.part.hbond>  (118) 
-3.9700

>  <Gold.PLP.part.metal>  (118) 
0.0000

>  <Gold.PLP.part.nonpolar>  (118) 
-14.8072

>  <Gold.PLP.part.repulsive>  (118) 
0.2137

>  <Gold.Protein.RotatedAtoms>  (118) 


>  <Gold.Protein.RotatedTorsions>  (118) 


>  <Gold.Protein.RotatedWaterAtoms>  (118) 


>  <Gold.Version>  (118) 
5.3.0

>  <PLP.Chemscore.CHOScore>  (118) 


>  <PLP.Chemscore.Hbond>  (118) 


>  <PLP.Chemscore.Internal.Correction>  (118) 


>  <PLP.Chemscore.Metal>  (118) 


>  <PLP.Fitness>  (118) 


>  <PLP.PLP>  (118) 


>  <PLP.ligand.clash>  (118) 


>  <PLP.ligand.torsion>  (118) 


>  <PLP.part.buried>  (118) 


>  <PLP.part.hbond>  (118) 


>  <PLP.part.metal>  (118) 


>  <PLP.part.nonpolar>  (118) 


>  <PLP.part.repulsive>  (118) 


>  <Version>  (118) 


$$$$
118|Compound_49|Compounds_3D_F|sdf|19|dock1|1
     RDKit          3D

  9  8  0  0  0  0  0  0  0  0999 V2000
   -5.2594  -16.6384    9.1548 O   0  0  0  0  0  0  0  0  0  0  0  0
   -4.0833  -17.0972   10.1546 P   0  0  0  0  0  0  0  0  0  0  0  0
   -4.0379  -18.5746   10.2172 O   0  0  0  0  0  0  0  0  0  0  0  0
   -2.6735  -16.5382    9.6157 O   0  0  0  0  0  0  0  0  0  0  0  0
   -4.4067  -16.4279   11.8190 C   0  0  0  0  0  0  0  0  0  0  0  0
   -4.4781  -14.9661   11.7526 N   0  0  0  0  0  0  0  0  0  0  0  0
   -5.5391  -14.3185   12.2752 C   0  0  0  0  0  0  0  0  0  0  0  0
   -6.4336  -14.9457   12.7996 O   0  0  0  0  0  0  0  0  0  0  0  0
   -5.6145  -12.7525   12.2026 B   0  0  0  0  0  0  0  0  0  0  0  0
  1  2  1  0
  2  3  2  0
  2  4  1  0
  2  5  1  0
  5  6  1  0
  6  7  1  0
  7  8  2  0
  7  9  1  0
M  END
>  <Gold.Gold.Protein.RotatedWaterAtoms>  (119) 


>  <Gold.Id.Protein>  (119) 


>  <Gold.PLP.Chemscore.CHOScore>  (119) 
0.0000

>  <Gold.PLP.Chemscore.Hbond>  (119) 
1.8240

>  <Gold.PLP.Chemscore.Internal.Correction>  (119) 
0.0002

>  <Gold.PLP.Chemscore.Metal>  (119) 
0.0000

>  <Gold.PLP.Fitness>  (119) 
25.1581

>  <Gold.PLP.PLP>  (119) 
-19.7507

>  <Gold.PLP.ligand.clash>  (119) 
0.0000

>  <Gold.PLP.ligand.torsion>  (119) 
0.0324

>  <Gold.PLP.part.buried>  (119) 
-3.9091

>  <Gold.PLP.part.hbond>  (119) 
-4.0000

>  <Gold.PLP.part.metal>  (119) 
0.0000

>  <Gold.PLP.part.nonpolar>  (119) 
-11.9234

>  <Gold.PLP.part.repulsive>  (119) 
0.3182

>  <Gold.Protein.RotatedAtoms>  (119) 


>  <Gold.Protein.RotatedTorsions>  (119) 


>  <Gold.Protein.RotatedWaterAtoms>  (119) 


>  <Gold.Version>  (119) 
5.3.0

>  <PLP.Chemscore.CHOScore>  (119) 


>  <PLP.Chemscore.Hbond>  (119) 


>  <PLP.Chemscore.Internal.Correction>  (119) 


>  <PLP.Chemscore.Metal>  (119) 


>  <PLP.Fitness>  (119) 


>  <PLP.PLP>  (119) 


>  <PLP.ligand.clash>  (119) 


>  <PLP.ligand.torsion>  (119) 


>  <PLP.part.buried>  (119) 


>  <PLP.part.hbond>  (119) 


>  <PLP.part.metal>  (119) 


>  <PLP.part.nonpolar>  (119) 


>  <PLP.part.repulsive>  (119) 


>  <Version>  (119) 


$$$$
119|Compound_49|Compounds_3D_F|sdf|19|dock2|1
     RDKit          3D

  9  8  0  0  0  0  0  0  0  0999 V2000
  -14.6297  -21.5043   14.5990 O   0  0  0  0  0  0  0  0  0  0  0  0
  -13.5979  -21.4226   13.3653 P   0  0  0  0  0  0  0  0  0  0  0  0
  -13.6253  -22.6970   12.6145 O   0  0  0  0  0  0  0  0  0  0  0  0
  -14.0233  -20.2148   12.3902 O   0  0  0  0  0  0  0  0  0  0  0  0
  -11.9150  -21.1273   14.0006 C   0  0  0  0  0  0  0  0  0  0  0  0
  -10.9964  -20.9277   12.8769 N   0  0  0  0  0  0  0  0  0  0  0  0
  -11.0091  -19.7650   12.1941 C   0  0  0  0  0  0  0  0  0  0  0  0
  -11.7804  -18.8854   12.5098 O   0  0  0  0  0  0  0  0  0  0  0  0
  -10.0249  -19.5530   10.9900 B   0  0  0  0  0  0  0  0  0  0  0  0
  1  2  1  0
  2  3  2  0
  2  4  1  0
  2  5  1  0
  5  6  1  0
  6  7  1  0
  7  8  2  0
  7  9  1  0
M  END
>  <Gold.Gold.Protein.RotatedWaterAtoms>  (120) 


>  <Gold.Id.Protein>  (120) 


>  <Gold.PLP.Chemscore.CHOScore>  (120) 
0.0000

>  <Gold.PLP.Chemscore.Hbond>  (120) 
3.9680

>  <Gold.PLP.Chemscore.Internal.Correction>  (120) 
0.0002

>  <Gold.PLP.Chemscore.Metal>  (120) 
0.0000

>  <Gold.PLP.Fitness>  (120) 
28.9839

>  <Gold.PLP.PLP>  (120) 
-17.3463

>  <Gold.PLP.ligand.clash>  (120) 
0.0000

>  <Gold.PLP.ligand.torsion>  (120) 
0.1333

>  <Gold.PLP.part.buried>  (120) 
-3.8167

>  <Gold.PLP.part.hbond>  (120) 
-5.3975

>  <Gold.PLP.part.metal>  (120) 
0.0000

>  <Gold.PLP.part.nonpolar>  (120) 
-8.0667

>  <Gold.PLP.part.repulsive>  (120) 
0.1197

>  <Gold.Protein.RotatedAtoms>  (120) 


>  <Gold.Protein.RotatedTorsions>  (120) 


>  <Gold.Protein.RotatedWaterAtoms>  (120) 


>  <Gold.Version>  (120) 
5.3.0

>  <PLP.Chemscore.CHOScore>  (120) 


>  <PLP.Chemscore.Hbond>  (120) 


>  <PLP.Chemscore.Internal.Correction>  (120) 


>  <PLP.Chemscore.Metal>  (120) 


>  <PLP.Fitness>  (120) 


>  <PLP.PLP>  (120) 


>  <PLP.ligand.clash>  (120) 


>  <PLP.ligand.torsion>  (120) 


>  <PLP.part.buried>  (120) 


>  <PLP.part.hbond>  (120) 


>  <PLP.part.metal>  (120) 


>  <PLP.part.nonpolar>  (120) 


>  <PLP.part.repulsive>  (120) 


>  <Version>  (120) 


$$$$
120|Compound_49|Compounds_3D_F|sdf|19|dock3|1
     RDKit          3D

  9  8  0  0  0  0  0  0  0  0999 V2000
  -14.5202  -21.4544   14.5827 O   0  0  0  0  0  0  0  0  0  0  0  0
  -13.5895  -21.4989   13.2694 P   0  0  0  0  0  0  0  0  0  0  0  0
  -13.6056  -22.8641   12.6997 O   0  0  0  0  0  0  0  0  0  0  0  0
  -14.1499  -20.4551   12.1799 O   0  0  0  0  0  0  0  0  0  0  0  0
  -11.8817  -21.0486   13.7207 C   0  0  0  0  0  0  0  0  0  0  0  0
  -11.0747  -20.9128   12.5056 N   0  0  0  0  0  0  0  0  0  0  0  0
  -10.8581  -19.6932   11.9728 C   0  0  0  0  0  0  0  0  0  0  0  0
  -11.3312  -18.7095   12.4990 O   0  0  0  0  0  0  0  0  0  0  0  0
   -9.9939  -19.5494   10.6705 B   0  0  0  0  0  0  0  0  0  0  0  0
  1  2  1  0
  2  3  2  0
  2  4  1  0
  2  5  1  0
  5  6  1  0
  6  7  1  0
  7  8  2  0
  7  9  1  0
M  END
>  <Gold.Gold.Protein.RotatedWaterAtoms>  (121) 


>  <Gold.Id.Protein>  (121) 


>  <Gold.PLP.Chemscore.CHOScore>  (121) 
0.0000

>  <Gold.PLP.Chemscore.Hbond>  (121) 
4.0000

>  <Gold.PLP.Chemscore.Internal.Correction>  (121) 
0.0002

>  <Gold.PLP.Chemscore.Metal>  (121) 
0.0000

>  <Gold.PLP.Fitness>  (121) 
28.3821

>  <Gold.PLP.PLP>  (121) 
-16.8646

>  <Gold.PLP.ligand.clash>  (121) 
0.0000

>  <Gold.PLP.ligand.torsion>  (121) 
0.2414

>  <Gold.PLP.part.buried>  (121) 
-4.0288

>  <Gold.PLP.part.hbond>  (121) 
-5.1572

>  <Gold.PLP.part.metal>  (121) 
0.0000

>  <Gold.PLP.part.nonpolar>  (121) 
-7.6392

>  <Gold.PLP.part.repulsive>  (121) 
0.0912

>  <Gold.Protein.RotatedAtoms>  (121) 


>  <Gold.Protein.RotatedTorsions>  (121) 


>  <Gold.Protein.RotatedWaterAtoms>  (121) 


>  <Gold.Version>  (121) 
5.3.0

>  <PLP.Chemscore.CHOScore>  (121) 


>  <PLP.Chemscore.Hbond>  (121) 


>  <PLP.Chemscore.Internal.Correction>  (121) 


>  <PLP.Chemscore.Metal>  (121) 


>  <PLP.Fitness>  (121) 


>  <PLP.PLP>  (121) 


>  <PLP.ligand.clash>  (121) 


>  <PLP.ligand.torsion>  (121) 


>  <PLP.part.buried>  (121) 


>  <PLP.part.hbond>  (121) 


>  <PLP.part.metal>  (121) 


>  <PLP.part.nonpolar>  (121) 


>  <PLP.part.repulsive>  (121) 


>  <Version>  (121) 


$$$$
121|Compound_49|Compounds_3D_F|sdf|19|dock4|1
     RDKit          3D

  9  8  0  0  0  0  0  0  0  0999 V2000
   -8.9905  -14.6044   10.3933 O   0  0  0  0  0  0  0  0  0  0  0  0
   -8.7877  -13.6760   11.6933 P   0  0  0  0  0  0  0  0  0  0  0  0
   -8.8668  -12.2522   11.2995 O   0  0  0  0  0  0  0  0  0  0  0  0
   -9.9401  -14.0011   12.7689 O   0  0  0  0  0  0  0  0  0  0  0  0
   -7.1551  -14.0131   12.4307 C   0  0  0  0  0  0  0  0  0  0  0  0
   -6.3973  -14.9077   11.5523 N   0  0  0  0  0  0  0  0  0  0  0  0
   -6.6971  -16.2216   11.5074 C   0  0  0  0  0  0  0  0  0  0  0  0
   -7.5932  -16.6623   12.1938 O   0  0  0  0  0  0  0  0  0  0  0  0
   -5.8839  -17.1790   10.5664 B   0  0  0  0  0  0  0  0  0  0  0  0
  1  2  1  0
  2  3  2  0
  2  4  1  0
  2  5  1  0
  5  6  1  0
  6  7  1  0
  7  8  2  0
  7  9  1  0
M  END
>  <Gold.Gold.Protein.RotatedWaterAtoms>  (122) 


>  <Gold.Id.Protein>  (122) 


>  <Gold.PLP.Chemscore.CHOScore>  (122) 
0.0000

>  <Gold.PLP.Chemscore.Hbond>  (122) 
3.0000

>  <Gold.PLP.Chemscore.Internal.Correction>  (122) 
0.0002

>  <Gold.PLP.Chemscore.Metal>  (122) 
0.0000

>  <Gold.PLP.Fitness>  (122) 
27.2394

>  <Gold.PLP.PLP>  (122) 
-18.5936

>  <Gold.PLP.ligand.clash>  (122) 
0.0000

>  <Gold.PLP.ligand.torsion>  (122) 
0.1772

>  <Gold.PLP.part.buried>  (122) 
-4.0484

>  <Gold.PLP.part.hbond>  (122) 
-5.0300

>  <Gold.PLP.part.metal>  (122) 
0.0000

>  <Gold.PLP.part.nonpolar>  (122) 
-9.8629

>  <Gold.PLP.part.repulsive>  (122) 
0.2810

>  <Gold.Protein.RotatedAtoms>  (122) 


>  <Gold.Protein.RotatedTorsions>  (122) 


>  <Gold.Protein.RotatedWaterAtoms>  (122) 


>  <Gold.Version>  (122) 
5.3.0

>  <PLP.Chemscore.CHOScore>  (122) 


>  <PLP.Chemscore.Hbond>  (122) 


>  <PLP.Chemscore.Internal.Correction>  (122) 


>  <PLP.Chemscore.Metal>  (122) 


>  <PLP.Fitness>  (122) 


>  <PLP.PLP>  (122) 


>  <PLP.ligand.clash>  (122) 


>  <PLP.ligand.torsion>  (122) 


>  <PLP.part.buried>  (122) 


>  <PLP.part.hbond>  (122) 


>  <PLP.part.metal>  (122) 


>  <PLP.part.nonpolar>  (122) 


>  <PLP.part.repulsive>  (122) 


>  <Version>  (122) 


$$$$
122|Compound_49|Compounds_3D_F|sdf|19|dock5|1
     RDKit          3D

  9  8  0  0  0  0  0  0  0  0999 V2000
  -14.4008  -21.1717   14.4548 O   0  0  0  0  0  0  0  0  0  0  0  0
  -13.6003  -21.3095   13.0643 P   0  0  0  0  0  0  0  0  0  0  0  0
  -13.3199  -22.7372   12.7963 O   0  0  0  0  0  0  0  0  0  0  0  0
  -14.4927  -20.7034   11.8699 O   0  0  0  0  0  0  0  0  0  0  0  0
  -12.0291  -20.3918   13.1754 C   0  0  0  0  0  0  0  0  0  0  0  0
  -11.5444  -20.0876   11.8268 N   0  0  0  0  0  0  0  0  0  0  0  0
  -11.3998  -18.8053   11.4356 C   0  0  0  0  0  0  0  0  0  0  0  0
  -11.6712  -17.9046   12.1996 O   0  0  0  0  0  0  0  0  0  0  0  0
  -10.8811  -18.4809    9.9903 B   0  0  0  0  0  0  0  0  0  0  0  0
  1  2  1  0
  2  3  2  0
  2  4  1  0
  2  5  1  0
  5  6  1  0
  6  7  1  0
  7  8  2  0
  7  9  1  0
M  END
>  <Gold.Gold.Protein.RotatedWaterAtoms>  (123) 


>  <Gold.Id.Protein>  (123) 


>  <Gold.PLP.Chemscore.CHOScore>  (123) 
0.0000

>  <Gold.PLP.Chemscore.Hbond>  (123) 
4.7650

>  <Gold.PLP.Chemscore.Internal.Correction>  (123) 
0.0002

>  <Gold.PLP.Chemscore.Metal>  (123) 
0.0000

>  <Gold.PLP.Fitness>  (123) 
28.7063

>  <Gold.PLP.PLP>  (123) 
-15.2984

>  <Gold.PLP.ligand.clash>  (123) 
0.0000

>  <Gold.PLP.ligand.torsion>  (123) 
0.4437

>  <Gold.PLP.part.buried>  (123) 
-2.7898

>  <Gold.PLP.part.hbond>  (123) 
-5.3058

>  <Gold.PLP.part.metal>  (123) 
0.0000

>  <Gold.PLP.part.nonpolar>  (123) 
-7.1520

>  <Gold.PLP.part.repulsive>  (123) 
0.0932

>  <Gold.Protein.RotatedAtoms>  (123) 


>  <Gold.Protein.RotatedTorsions>  (123) 


>  <Gold.Protein.RotatedWaterAtoms>  (123) 


>  <Gold.Version>  (123) 
5.3.0

>  <PLP.Chemscore.CHOScore>  (123) 


>  <PLP.Chemscore.Hbond>  (123) 


>  <PLP.Chemscore.Internal.Correction>  (123) 


>  <PLP.Chemscore.Metal>  (123) 


>  <PLP.Fitness>  (123) 


>  <PLP.PLP>  (123) 


>  <PLP.ligand.clash>  (123) 


>  <PLP.ligand.torsion>  (123) 


>  <PLP.part.buried>  (123) 


>  <PLP.part.hbond>  (123) 


>  <PLP.part.metal>  (123) 


>  <PLP.part.nonpolar>  (123) 


>  <PLP.part.repulsive>  (123) 


>  <Version>  (123) 


$$$$
123|Compound_51|Compounds_3D_F|sdf|20|dock1|1
     RDKit          3D

 10  9  0  0  0  0  0  0  0  0999 V2000
  -14.6466  -21.6177   14.5311 O   0  0  0  0  0  0  0  0  0  0  0  0
  -13.6283  -21.5607   13.2849 P   0  0  0  0  0  0  0  0  0  0  0  0
  -13.4188  -22.9273   12.7572 O   0  0  0  0  0  0  0  0  0  0  0  0
  -14.2489  -20.6275   12.1288 O   0  0  0  0  0  0  0  0  0  0  0  0
  -12.0339  -20.8690   13.8347 C   0  0  0  0  0  0  0  0  0  0  0  0
  -11.1221  -20.7766   12.6916 N   0  0  0  0  0  0  0  0  0  0  0  0
  -10.9118  -19.5871   12.0926 C   0  0  0  0  0  0  0  0  0  0  0  0
  -11.4777  -18.5955   12.4997 O   0  0  0  0  0  0  0  0  0  0  0  0
   -9.9349  -19.4874   10.8672 B   0  0  0  0  0  0  0  0  0  0  0  0
  -11.4237  -21.7805   14.9014 C   0  0  0  0  0  0  0  0  0  0  0  0
  1  2  1  0
  2  3  2  0
  2  4  1  0
  2  5  1  0
  5  6  1  0
  5 10  1  0
  6  7  1  0
  7  8  2  0
  7  9  1  0
M  END
>  <Gold.Gold.Protein.RotatedWaterAtoms>  (124) 


>  <Gold.Id.Protein>  (124) 


>  <Gold.PLP.Chemscore.CHOScore>  (124) 
0.0000

>  <Gold.PLP.Chemscore.Hbond>  (124) 
4.0000

>  <Gold.PLP.Chemscore.Internal.Correction>  (124) 
0.0004

>  <Gold.PLP.Chemscore.Metal>  (124) 
0.0000

>  <Gold.PLP.Fitness>  (124) 
32.5172

>  <Gold.PLP.PLP>  (124) 
-21.0289

>  <Gold.PLP.ligand.clash>  (124) 
0.0000

>  <Gold.PLP.ligand.torsion>  (124) 
0.2561

>  <Gold.PLP.part.buried>  (124) 
-4.1523

>  <Gold.PLP.part.hbond>  (124) 
-5.8070

>  <Gold.PLP.part.metal>  (124) 
0.0000

>  <Gold.PLP.part.nonpolar>  (124) 
-11.4744

>  <Gold.PLP.part.repulsive>  (124) 
0.0947

>  <Gold.Protein.RotatedAtoms>  (124) 


>  <Gold.Protein.RotatedTorsions>  (124) 


>  <Gold.Protein.RotatedWaterAtoms>  (124) 


>  <Gold.Version>  (124) 
5.3.0

>  <PLP.Chemscore.CHOScore>  (124) 


>  <PLP.Chemscore.Hbond>  (124) 


>  <PLP.Chemscore.Internal.Correction>  (124) 


>  <PLP.Chemscore.Metal>  (124) 


>  <PLP.Fitness>  (124) 


>  <PLP.PLP>  (124) 


>  <PLP.ligand.clash>  (124) 


>  <PLP.ligand.torsion>  (124) 


>  <PLP.part.buried>  (124) 


>  <PLP.part.hbond>  (124) 


>  <PLP.part.metal>  (124) 


>  <PLP.part.nonpolar>  (124) 


>  <PLP.part.repulsive>  (124) 


>  <Version>  (124) 


$$$$
124|Compound_51|Compounds_3D_F|sdf|20|dock2|1
     RDKit          3D

 10  9  0  0  0  0  0  0  0  0999 V2000
   -5.5052  -14.9012    8.9243 O   0  0  0  0  0  0  0  0  0  0  0  0
   -6.0762  -16.0658    9.8788 P   0  0  0  0  0  0  0  0  0  0  0  0
   -7.4986  -16.3146    9.5552 O   0  0  0  0  0  0  0  0  0  0  0  0
   -5.2280  -17.4141    9.6443 O   0  0  0  0  0  0  0  0  0  0  0  0
   -5.9292  -15.5497   11.6209 C   0  0  0  0  0  0  0  0  0  0  0  0
   -5.3824  -14.1918   11.6830 N   0  0  0  0  0  0  0  0  0  0  0  0
   -6.0811  -13.2118   12.2908 C   0  0  0  0  0  0  0  0  0  0  0  0
   -7.1611  -13.4548   12.7847 O   0  0  0  0  0  0  0  0  0  0  0  0
   -5.4958  -11.7562   12.3574 B   0  0  0  0  0  0  0  0  0  0  0  0
   -4.9946  -16.5100   12.3597 C   0  0  0  0  0  0  0  0  0  0  0  0
  1  2  1  0
  2  3  2  0
  2  4  1  0
  2  5  1  0
  5  6  1  0
  5 10  1  0
  6  7  1  0
  7  8  2  0
  7  9  1  0
M  END
>  <Gold.Gold.Protein.RotatedWaterAtoms>  (125) 


>  <Gold.Id.Protein>  (125) 


>  <Gold.PLP.Chemscore.CHOScore>  (125) 
0.0000

>  <Gold.PLP.Chemscore.Hbond>  (125) 
2.0000

>  <Gold.PLP.Chemscore.Internal.Correction>  (125) 
0.0004

>  <Gold.PLP.Chemscore.Metal>  (125) 
0.0000

>  <Gold.PLP.Fitness>  (125) 
29.1161

>  <Gold.PLP.PLP>  (125) 
-23.1558

>  <Gold.PLP.ligand.clash>  (125) 
0.0000

>  <Gold.PLP.ligand.torsion>  (125) 
0.0201

>  <Gold.PLP.part.buried>  (125) 
-5.2513

>  <Gold.PLP.part.hbond>  (125) 
-3.0000

>  <Gold.PLP.part.metal>  (125) 
0.0000

>  <Gold.PLP.part.nonpolar>  (125) 
-15.6521

>  <Gold.PLP.part.repulsive>  (125) 
0.2684

>  <Gold.Protein.RotatedAtoms>  (125) 


>  <Gold.Protein.RotatedTorsions>  (125) 


>  <Gold.Protein.RotatedWaterAtoms>  (125) 


>  <Gold.Version>  (125) 
5.3.0

>  <PLP.Chemscore.CHOScore>  (125) 


>  <PLP.Chemscore.Hbond>  (125) 


>  <PLP.Chemscore.Internal.Correction>  (125) 


>  <PLP.Chemscore.Metal>  (125) 


>  <PLP.Fitness>  (125) 


>  <PLP.PLP>  (125) 


>  <PLP.ligand.clash>  (125) 


>  <PLP.ligand.torsion>  (125) 


>  <PLP.part.buried>  (125) 


>  <PLP.part.hbond>  (125) 


>  <PLP.part.metal>  (125) 


>  <PLP.part.nonpolar>  (125) 


>  <PLP.part.repulsive>  (125) 


>  <Version>  (125) 


$$$$
125|Compound_51|Compounds_3D_F|sdf|20|dock3|1
     RDKit          3D

 10  9  0  0  0  0  0  0  0  0999 V2000
   -3.8043  -18.8617    9.5952 O   0  0  0  0  0  0  0  0  0  0  0  0
   -3.5771  -17.3130    9.9734 P   0  0  0  0  0  0  0  0  0  0  0  0
   -2.2228  -17.1390   10.5440 O   0  0  0  0  0  0  0  0  0  0  0  0
   -3.7212  -16.4113    8.6472 O   0  0  0  0  0  0  0  0  0  0  0  0
   -4.8250  -16.7975   11.1982 C   0  0  0  0  0  0  0  0  0  0  0  0
   -4.6927  -15.3611   11.4544 N   0  0  0  0  0  0  0  0  0  0  0  0
   -5.6375  -14.7145   12.1667 C   0  0  0  0  0  0  0  0  0  0  0  0
   -6.5956  -15.3218   12.5937 O   0  0  0  0  0  0  0  0  0  0  0  0
   -5.4964  -13.1748   12.4415 B   0  0  0  0  0  0  0  0  0  0  0  0
   -4.6094  -17.5700   12.5012 C   0  0  0  0  0  0  0  0  0  0  0  0
  1  2  1  0
  2  3  2  0
  2  4  1  0
  2  5  1  0
  5  6  1  0
  5 10  1  0
  6  7  1  0
  7  8  2  0
  7  9  1  0
M  END
>  <Gold.Gold.Protein.RotatedWaterAtoms>  (126) 


>  <Gold.Id.Protein>  (126) 


>  <Gold.PLP.Chemscore.CHOScore>  (126) 
0.0000

>  <Gold.PLP.Chemscore.Hbond>  (126) 
2.9920

>  <Gold.PLP.Chemscore.Internal.Correction>  (126) 
0.0004

>  <Gold.PLP.Chemscore.Metal>  (126) 
0.0000

>  <Gold.PLP.Fitness>  (126) 
30.6800

>  <Gold.PLP.PLP>  (126) 
-22.0507

>  <Gold.PLP.ligand.clash>  (126) 
0.0000

>  <Gold.PLP.ligand.torsion>  (126) 
0.1735

>  <Gold.PLP.part.buried>  (126) 
-4.5851

>  <Gold.PLP.part.hbond>  (126) 
-3.0000

>  <Gold.PLP.part.metal>  (126) 
0.0000

>  <Gold.PLP.part.nonpolar>  (126) 
-14.9584

>  <Gold.PLP.part.repulsive>  (126) 
0.3485

>  <Gold.Protein.RotatedAtoms>  (126) 


>  <Gold.Protein.RotatedTorsions>  (126) 


>  <Gold.Protein.RotatedWaterAtoms>  (126) 


>  <Gold.Version>  (126) 
5.3.0

>  <PLP.Chemscore.CHOScore>  (126) 


>  <PLP.Chemscore.Hbond>  (126) 


>  <PLP.Chemscore.Internal.Correction>  (126) 


>  <PLP.Chemscore.Metal>  (126) 


>  <PLP.Fitness>  (126) 


>  <PLP.PLP>  (126) 


>  <PLP.ligand.clash>  (126) 


>  <PLP.ligand.torsion>  (126) 


>  <PLP.part.buried>  (126) 


>  <PLP.part.hbond>  (126) 


>  <PLP.part.metal>  (126) 


>  <PLP.part.nonpolar>  (126) 


>  <PLP.part.repulsive>  (126) 


>  <Version>  (126) 


$$$$
126|Compound_51|Compounds_3D_F|sdf|20|dock4|1
     RDKit          3D

 10  9  0  0  0  0  0  0  0  0999 V2000
  -14.6605  -21.5600   14.6053 O   0  0  0  0  0  0  0  0  0  0  0  0
  -13.6035  -21.5109   13.3915 P   0  0  0  0  0  0  0  0  0  0  0  0
  -13.4386  -22.8688   12.8268 O   0  0  0  0  0  0  0  0  0  0  0  0
  -14.1471  -20.5160   12.2481 O   0  0  0  0  0  0  0  0  0  0  0  0
  -11.9974  -20.9088   14.0087 C   0  0  0  0  0  0  0  0  0  0  0  0
  -11.0499  -20.8176   12.8950 N   0  0  0  0  0  0  0  0  0  0  0  0
  -10.9365  -19.6677   12.1999 C   0  0  0  0  0  0  0  0  0  0  0  0
  -11.6189  -18.7109   12.4966 O   0  0  0  0  0  0  0  0  0  0  0  0
   -9.9213  -19.5694   11.0060 B   0  0  0  0  0  0  0  0  0  0  0  0
  -11.4579  -21.8820   15.0589 C   0  0  0  0  0  0  0  0  0  0  0  0
  1  2  1  0
  2  3  2  0
  2  4  1  0
  2  5  1  0
  5  6  1  0
  5 10  1  0
  6  7  1  0
  7  8  2  0
  7  9  1  0
M  END
>  <Gold.Gold.Protein.RotatedWaterAtoms>  (127) 


>  <Gold.Id.Protein>  (127) 


>  <Gold.PLP.Chemscore.CHOScore>  (127) 
0.0000

>  <Gold.PLP.Chemscore.Hbond>  (127) 
4.0000

>  <Gold.PLP.Chemscore.Internal.Correction>  (127) 
0.0004

>  <Gold.PLP.Chemscore.Metal>  (127) 
0.0000

>  <Gold.PLP.Fitness>  (127) 
32.5002

>  <Gold.PLP.PLP>  (127) 
-21.2743

>  <Gold.PLP.ligand.clash>  (127) 
0.0000

>  <Gold.PLP.ligand.torsion>  (127) 
0.3873

>  <Gold.PLP.part.buried>  (127) 
-3.8813

>  <Gold.PLP.part.hbond>  (127) 
-5.5960

>  <Gold.PLP.part.metal>  (127) 
0.0000

>  <Gold.PLP.part.nonpolar>  (127) 
-11.6999

>  <Gold.PLP.part.repulsive>  (127) 
0.1052

>  <Gold.Protein.RotatedAtoms>  (127) 


>  <Gold.Protein.RotatedTorsions>  (127) 


>  <Gold.Protein.RotatedWaterAtoms>  (127) 


>  <Gold.Version>  (127) 
5.3.0

>  <PLP.Chemscore.CHOScore>  (127) 


>  <PLP.Chemscore.Hbond>  (127) 


>  <PLP.Chemscore.Internal.Correction>  (127) 


>  <PLP.Chemscore.Metal>  (127) 


>  <PLP.Fitness>  (127) 


>  <PLP.PLP>  (127) 


>  <PLP.ligand.clash>  (127) 


>  <PLP.ligand.torsion>  (127) 


>  <PLP.part.buried>  (127) 


>  <PLP.part.hbond>  (127) 


>  <PLP.part.metal>  (127) 


>  <PLP.part.nonpolar>  (127) 


>  <PLP.part.repulsive>  (127) 


>  <Version>  (127) 


$$$$
127|Compound_51|Compounds_3D_F|sdf|20|dock5|1
     RDKit          3D

 10  9  0  0  0  0  0  0  0  0999 V2000
  -14.6790  -21.6811   14.5946 O   0  0  0  0  0  0  0  0  0  0  0  0
  -13.6191  -21.7370   13.3835 P   0  0  0  0  0  0  0  0  0  0  0  0
  -13.3270  -23.1488   13.0495 O   0  0  0  0  0  0  0  0  0  0  0  0
  -14.2393  -20.9972   12.0948 O   0  0  0  0  0  0  0  0  0  0  0  0
  -12.0799  -20.8986   13.8843 C   0  0  0  0  0  0  0  0  0  0  0  0
  -11.1456  -20.8792   12.7559 N   0  0  0  0  0  0  0  0  0  0  0  0
  -10.8715  -19.7175   12.1287 C   0  0  0  0  0  0  0  0  0  0  0  0
  -11.3988  -18.6906   12.4983 O   0  0  0  0  0  0  0  0  0  0  0  0
   -9.8705  -19.6961   10.9190 B   0  0  0  0  0  0  0  0  0  0  0  0
  -11.4478  -21.6515   15.0569 C   0  0  0  0  0  0  0  0  0  0  0  0
  1  2  1  0
  2  3  2  0
  2  4  1  0
  2  5  1  0
  5  6  1  0
  5 10  1  0
  6  7  1  0
  7  8  2  0
  7  9  1  0
M  END
>  <Gold.Gold.Protein.RotatedWaterAtoms>  (128) 


>  <Gold.Id.Protein>  (128) 


>  <Gold.PLP.Chemscore.CHOScore>  (128) 
0.0000

>  <Gold.PLP.Chemscore.Hbond>  (128) 
4.0000

>  <Gold.PLP.Chemscore.Internal.Correction>  (128) 
0.0004

>  <Gold.PLP.Chemscore.Metal>  (128) 
0.0000

>  <Gold.PLP.Fitness>  (128) 
32.8314

>  <Gold.PLP.PLP>  (128) 
-21.1051

>  <Gold.PLP.ligand.clash>  (128) 
0.0000

>  <Gold.PLP.ligand.torsion>  (128) 
0.1371

>  <Gold.PLP.part.buried>  (128) 
-4.1593

>  <Gold.PLP.part.hbond>  (128) 
-6.0000

>  <Gold.PLP.part.metal>  (128) 
0.0000

>  <Gold.PLP.part.nonpolar>  (128) 
-11.6272

>  <Gold.PLP.part.repulsive>  (128) 
0.0810

>  <Gold.Protein.RotatedAtoms>  (128) 


>  <Gold.Protein.RotatedTorsions>  (128) 


>  <Gold.Protein.RotatedWaterAtoms>  (128) 


>  <Gold.Version>  (128) 
5.3.0

>  <PLP.Chemscore.CHOScore>  (128) 


>  <PLP.Chemscore.Hbond>  (128) 


>  <PLP.Chemscore.Internal.Correction>  (128) 


>  <PLP.Chemscore.Metal>  (128) 


>  <PLP.Fitness>  (128) 


>  <PLP.PLP>  (128) 


>  <PLP.ligand.clash>  (128) 


>  <PLP.ligand.torsion>  (128) 


>  <PLP.part.buried>  (128) 


>  <PLP.part.hbond>  (128) 


>  <PLP.part.metal>  (128) 


>  <PLP.part.nonpolar>  (128) 


>  <PLP.part.repulsive>  (128) 


>  <Version>  (128) 


$$$$
128|Compound_52|Compounds_3D_F|sdf|21|dock1|1
     RDKit          3D

 11 10  0  0  0  0  0  0  0  0999 V2000
   -9.7391  -19.6364   11.0835 O   0  0  0  0  0  0  0  0  0  0  0  0
  -10.9929  -18.7756   11.1453 S   0  0  0  0  0  0  0  0  0  0  0  0
  -11.3985  -18.7458   12.5061 O   0  0  0  0  0  0  0  0  0  0  0  0
  -10.7098  -17.5942   10.4084 O   0  0  0  0  0  0  0  0  0  0  0  0
  -12.0828  -19.5133   10.3820 O   0  0  0  0  0  0  0  0  0  0  0  0
  -12.6154  -18.7819    9.2765 C   0  0  0  0  0  0  0  0  0  0  0  0
  -14.1375  -18.9372    9.2474 C   0  0  0  0  0  0  0  0  0  0  0  0
  -14.5016  -19.9979    8.3055 N   0  0  0  0  0  0  0  0  0  0  0  0
  -14.3382  -21.2911    8.6510 C   0  0  0  0  0  0  0  0  0  0  0  0
  -13.8904  -21.5749    9.7412 O   0  0  0  0  0  0  0  0  0  0  0  0
  -14.7277  -22.4284    7.6412 B   0  0  0  0  0  0  0  0  0  0  0  0
  1  2  1  0
  2  3  2  0
  2  4  2  0
  2  5  1  0
  5  6  1  0
  6  7  1  0
  7  8  1  0
  8  9  1  0
  9 10  2  0
  9 11  1  0
M  END
>  <Gold.Gold.Protein.RotatedWaterAtoms>  (129) 


>  <Gold.Id.Protein>  (129) 


>  <Gold.PLP.Chemscore.CHOScore>  (129) 
0.0000

>  <Gold.PLP.Chemscore.Hbond>  (129) 
3.0000

>  <Gold.PLP.Chemscore.Internal.Correction>  (129) 
0.0895

>  <Gold.PLP.Chemscore.Metal>  (129) 
0.0000

>  <Gold.PLP.Fitness>  (129) 
31.0837

>  <Gold.PLP.PLP>  (129) 
-23.3930

>  <Gold.PLP.ligand.clash>  (129) 
0.0000

>  <Gold.PLP.ligand.torsion>  (129) 
0.6994

>  <Gold.PLP.part.buried>  (129) 
-4.2971

>  <Gold.PLP.part.hbond>  (129) 
-3.0000

>  <Gold.PLP.part.metal>  (129) 
0.0000

>  <Gold.PLP.part.nonpolar>  (129) 
-15.8323

>  <Gold.PLP.part.repulsive>  (129) 
0.2608

>  <Gold.Protein.RotatedAtoms>  (129) 


>  <Gold.Protein.RotatedTorsions>  (129) 


>  <Gold.Protein.RotatedWaterAtoms>  (129) 


>  <Gold.Version>  (129) 
5.3.0

>  <PLP.Chemscore.CHOScore>  (129) 


>  <PLP.Chemscore.Hbond>  (129) 


>  <PLP.Chemscore.Internal.Correction>  (129) 


>  <PLP.Chemscore.Metal>  (129) 


>  <PLP.Fitness>  (129) 


>  <PLP.PLP>  (129) 


>  <PLP.ligand.clash>  (129) 


>  <PLP.ligand.torsion>  (129) 


>  <PLP.part.buried>  (129) 


>  <PLP.part.hbond>  (129) 


>  <PLP.part.metal>  (129) 


>  <PLP.part.nonpolar>  (129) 


>  <PLP.part.repulsive>  (129) 


>  <Version>  (129) 


$$$$
129|Compound_52|Compounds_3D_F|sdf|21|dock2|1
     RDKit          3D

 11 10  0  0  0  0  0  0  0  0999 V2000
  -13.9242  -18.0208   12.8491 O   0  0  0  0  0  0  0  0  0  0  0  0
  -12.7127  -18.6071   12.1381 S   0  0  0  0  0  0  0  0  0  0  0  0
  -11.6471  -17.6872   12.3257 O   0  0  0  0  0  0  0  0  0  0  0  0
  -12.6255  -19.9669   12.5410 O   0  0  0  0  0  0  0  0  0  0  0  0
  -13.0250  -18.6141   10.6492 O   0  0  0  0  0  0  0  0  0  0  0  0
  -14.1289  -19.4470   10.2904 C   0  0  0  0  0  0  0  0  0  0  0  0
  -14.1968  -19.5765    8.7671 C   0  0  0  0  0  0  0  0  0  0  0  0
  -15.1030  -20.6703    8.4105 N   0  0  0  0  0  0  0  0  0  0  0  0
  -14.6025  -21.8545    8.0035 C   0  0  0  0  0  0  0  0  0  0  0  0
  -13.4027  -22.0131    7.9336 O   0  0  0  0  0  0  0  0  0  0  0  0
  -15.5738  -23.0270    7.6206 B   0  0  0  0  0  0  0  0  0  0  0  0
  1  2  1  0
  2  3  2  0
  2  4  2  0
  2  5  1  0
  5  6  1  0
  6  7  1  0
  7  8  1  0
  8  9  1  0
  9 10  2  0
  9 11  1  0
M  END
>  <Gold.Gold.Protein.RotatedWaterAtoms>  (130) 


>  <Gold.Id.Protein>  (130) 


>  <Gold.PLP.Chemscore.CHOScore>  (130) 
0.0000

>  <Gold.PLP.Chemscore.Hbond>  (130) 
3.0000

>  <Gold.PLP.Chemscore.Internal.Correction>  (130) 
0.0895

>  <Gold.PLP.Chemscore.Metal>  (130) 
0.0000

>  <Gold.PLP.Fitness>  (130) 
34.5548

>  <Gold.PLP.PLP>  (130) 
-25.9256

>  <Gold.PLP.ligand.clash>  (130) 
0.0000

>  <Gold.PLP.ligand.torsion>  (130) 
0.2302

>  <Gold.PLP.part.buried>  (130) 
-2.4599

>  <Gold.PLP.part.hbond>  (130) 
-5.0000

>  <Gold.PLP.part.metal>  (130) 
0.0000

>  <Gold.PLP.part.nonpolar>  (130) 
-18.3158

>  <Gold.PLP.part.repulsive>  (130) 
0.3646

>  <Gold.Protein.RotatedAtoms>  (130) 


>  <Gold.Protein.RotatedTorsions>  (130) 


>  <Gold.Protein.RotatedWaterAtoms>  (130) 


>  <Gold.Version>  (130) 
5.3.0

>  <PLP.Chemscore.CHOScore>  (130) 


>  <PLP.Chemscore.Hbond>  (130) 


>  <PLP.Chemscore.Internal.Correction>  (130) 


>  <PLP.Chemscore.Metal>  (130) 


>  <PLP.Fitness>  (130) 


>  <PLP.PLP>  (130) 


>  <PLP.ligand.clash>  (130) 


>  <PLP.ligand.torsion>  (130) 


>  <PLP.part.buried>  (130) 


>  <PLP.part.hbond>  (130) 


>  <PLP.part.metal>  (130) 


>  <PLP.part.nonpolar>  (130) 


>  <PLP.part.repulsive>  (130) 


>  <Version>  (130) 


$$$$
130|Compound_52|Compounds_3D_F|sdf|21|dock3|1
     RDKit          3D

 11 10  0  0  0  0  0  0  0  0999 V2000
  -12.0020  -19.7214   13.0404 O   0  0  0  0  0  0  0  0  0  0  0  0
  -11.7823  -18.9012   11.7770 S   0  0  0  0  0  0  0  0  0  0  0  0
  -11.4005  -17.5999   12.1988 O   0  0  0  0  0  0  0  0  0  0  0  0
  -10.9734  -19.6915   10.9167 O   0  0  0  0  0  0  0  0  0  0  0  0
  -13.1337  -18.7584   11.0931 O   0  0  0  0  0  0  0  0  0  0  0  0
  -13.3118  -19.6241    9.9707 C   0  0  0  0  0  0  0  0  0  0  0  0
  -14.7862  -19.6315    9.5606 C   0  0  0  0  0  0  0  0  0  0  0  0
  -14.9747  -20.5494    8.4351 N   0  0  0  0  0  0  0  0  0  0  0  0
  -14.7989  -21.8749    8.6098 C   0  0  0  0  0  0  0  0  0  0  0  0
  -14.4854  -22.3060    9.6986 O   0  0  0  0  0  0  0  0  0  0  0  0
  -15.0002  -22.8590    7.4032 B   0  0  0  0  0  0  0  0  0  0  0  0
  1  2  1  0
  2  3  2  0
  2  4  2  0
  2  5  1  0
  5  6  1  0
  6  7  1  0
  7  8  1  0
  8  9  1  0
  9 10  2  0
  9 11  1  0
M  END
>  <Gold.Gold.Protein.RotatedWaterAtoms>  (131) 


>  <Gold.Id.Protein>  (131) 


>  <Gold.PLP.Chemscore.CHOScore>  (131) 
0.0000

>  <Gold.PLP.Chemscore.Hbond>  (131) 
3.0000

>  <Gold.PLP.Chemscore.Internal.Correction>  (131) 
0.0895

>  <Gold.PLP.Chemscore.Metal>  (131) 
0.0000

>  <Gold.PLP.Fitness>  (131) 
31.1557

>  <Gold.PLP.PLP>  (131) 
-22.8835

>  <Gold.PLP.ligand.clash>  (131) 
0.0000

>  <Gold.PLP.ligand.torsion>  (131) 
0.4087

>  <Gold.PLP.part.buried>  (131) 
-4.3946

>  <Gold.PLP.part.hbond>  (131) 
-5.0000

>  <Gold.PLP.part.metal>  (131) 
0.0000

>  <Gold.PLP.part.nonpolar>  (131) 
-13.6246

>  <Gold.PLP.part.repulsive>  (131) 
0.2926

>  <Gold.Protein.RotatedAtoms>  (131) 


>  <Gold.Protein.RotatedTorsions>  (131) 


>  <Gold.Protein.RotatedWaterAtoms>  (131) 


>  <Gold.Version>  (131) 
5.3.0

>  <PLP.Chemscore.CHOScore>  (131) 


>  <PLP.Chemscore.Hbond>  (131) 


>  <PLP.Chemscore.Internal.Correction>  (131) 


>  <PLP.Chemscore.Metal>  (131) 


>  <PLP.Fitness>  (131) 


>  <PLP.PLP>  (131) 


>  <PLP.ligand.clash>  (131) 


>  <PLP.ligand.torsion>  (131) 


>  <PLP.part.buried>  (131) 


>  <PLP.part.hbond>  (131) 


>  <PLP.part.metal>  (131) 


>  <PLP.part.nonpolar>  (131) 


>  <PLP.part.repulsive>  (131) 


>  <Version>  (131) 


$$$$
131|Compound_52|Compounds_3D_F|sdf|21|dock4|1
     RDKit          3D

 11 10  0  0  0  0  0  0  0  0999 V2000
  -10.2429  -17.3590   11.3692 O   0  0  0  0  0  0  0  0  0  0  0  0
  -11.1278  -18.5957   11.4358 S   0  0  0  0  0  0  0  0  0  0  0  0
  -10.4595  -19.6134   10.7045 O   0  0  0  0  0  0  0  0  0  0  0  0
  -11.4994  -18.7549   12.7980 O   0  0  0  0  0  0  0  0  0  0  0  0
  -12.4041  -18.2769   10.6716 O   0  0  0  0  0  0  0  0  0  0  0  0
  -12.7775  -19.2756    9.7207 C   0  0  0  0  0  0  0  0  0  0  0  0
  -14.1976  -18.9996    9.2215 C   0  0  0  0  0  0  0  0  0  0  0  0
  -14.5636  -19.9990    8.2155 N   0  0  0  0  0  0  0  0  0  0  0  0
  -14.6306  -21.3026    8.5538 C   0  0  0  0  0  0  0  0  0  0  0  0
  -14.3882  -21.6465    9.6908 O   0  0  0  0  0  0  0  0  0  0  0  0
  -15.0223  -22.3742    7.4753 B   0  0  0  0  0  0  0  0  0  0  0  0
  1  2  1  0
  2  3  2  0
  2  4  2  0
  2  5  1  0
  5  6  1  0
  6  7  1  0
  7  8  1  0
  8  9  1  0
  9 10  2  0
  9 11  1  0
M  END
>  <Gold.Gold.Protein.RotatedWaterAtoms>  (132) 


>  <Gold.Id.Protein>  (132) 


>  <Gold.PLP.Chemscore.CHOScore>  (132) 
0.0000

>  <Gold.PLP.Chemscore.Hbond>  (132) 
2.9920

>  <Gold.PLP.Chemscore.Internal.Correction>  (132) 
0.0793

>  <Gold.PLP.Chemscore.Metal>  (132) 
0.0000

>  <Gold.PLP.Fitness>  (132) 
32.1651

>  <Gold.PLP.PLP>  (132) 
-23.5407

>  <Gold.PLP.ligand.clash>  (132) 
0.0000

>  <Gold.PLP.ligand.torsion>  (132) 
0.2155

>  <Gold.PLP.part.buried>  (132) 
-3.5620

>  <Gold.PLP.part.hbond>  (132) 
-3.8023

>  <Gold.PLP.part.metal>  (132) 
0.0000

>  <Gold.PLP.part.nonpolar>  (132) 
-15.4195

>  <Gold.PLP.part.repulsive>  (132) 
0.3429

>  <Gold.Protein.RotatedAtoms>  (132) 


>  <Gold.Protein.RotatedTorsions>  (132) 


>  <Gold.Protein.RotatedWaterAtoms>  (132) 


>  <Gold.Version>  (132) 
5.3.0

>  <PLP.Chemscore.CHOScore>  (132) 


>  <PLP.Chemscore.Hbond>  (132) 


>  <PLP.Chemscore.Internal.Correction>  (132) 


>  <PLP.Chemscore.Metal>  (132) 


>  <PLP.Fitness>  (132) 


>  <PLP.PLP>  (132) 


>  <PLP.ligand.clash>  (132) 


>  <PLP.ligand.torsion>  (132) 


>  <PLP.part.buried>  (132) 


>  <PLP.part.hbond>  (132) 


>  <PLP.part.metal>  (132) 


>  <PLP.part.nonpolar>  (132) 


>  <PLP.part.repulsive>  (132) 


>  <Version>  (132) 


$$$$
132|Compound_52|Compounds_3D_F|sdf|21|dock5|1
     RDKit          3D

 11 10  0  0  0  0  0  0  0  0999 V2000
  -11.3648  -17.3351   12.4922 O   0  0  0  0  0  0  0  0  0  0  0  0
  -11.9528  -18.5188   11.7372 S   0  0  0  0  0  0  0  0  0  0  0  0
  -11.0259  -19.5866   11.8707 O   0  0  0  0  0  0  0  0  0  0  0  0
  -13.3079  -18.6297   12.1499 O   0  0  0  0  0  0  0  0  0  0  0  0
  -11.9766  -18.1446   10.2627 O   0  0  0  0  0  0  0  0  0  0  0  0
  -12.4870  -19.1712    9.4104 C   0  0  0  0  0  0  0  0  0  0  0  0
  -13.9739  -18.9234    9.1466 C   0  0  0  0  0  0  0  0  0  0  0  0
  -14.4987  -19.9817    8.2809 N   0  0  0  0  0  0  0  0  0  0  0  0
  -14.5356  -21.2559    8.7210 C   0  0  0  0  0  0  0  0  0  0  0  0
  -14.1349  -21.5244    9.8332 O   0  0  0  0  0  0  0  0  0  0  0  0
  -15.0974  -22.3907    7.7929 B   0  0  0  0  0  0  0  0  0  0  0  0
  1  2  1  0
  2  3  2  0
  2  4  2  0
  2  5  1  0
  5  6  1  0
  6  7  1  0
  7  8  1  0
  8  9  1  0
  9 10  2  0
  9 11  1  0
M  END
>  <Gold.Gold.Protein.RotatedWaterAtoms>  (133) 


>  <Gold.Id.Protein>  (133) 


>  <Gold.PLP.Chemscore.CHOScore>  (133) 
0.0000

>  <Gold.PLP.Chemscore.Hbond>  (133) 
3.0000

>  <Gold.PLP.Chemscore.Internal.Correction>  (133) 
0.0793

>  <Gold.PLP.Chemscore.Metal>  (133) 
0.0000

>  <Gold.PLP.Fitness>  (133) 
33.5059

>  <Gold.PLP.PLP>  (133) 
-25.0131

>  <Gold.PLP.ligand.clash>  (133) 
0.0000

>  <Gold.PLP.ligand.torsion>  (133) 
0.2933

>  <Gold.PLP.part.buried>  (133) 
-4.3110

>  <Gold.PLP.part.hbond>  (133) 
-4.0000

>  <Gold.PLP.part.metal>  (133) 
0.0000

>  <Gold.PLP.part.nonpolar>  (133) 
-16.7379

>  <Gold.PLP.part.repulsive>  (133) 
0.3921

>  <Gold.Protein.RotatedAtoms>  (133) 


>  <Gold.Protein.RotatedTorsions>  (133) 


>  <Gold.Protein.RotatedWaterAtoms>  (133) 


>  <Gold.Version>  (133) 
5.3.0

>  <PLP.Chemscore.CHOScore>  (133) 


>  <PLP.Chemscore.Hbond>  (133) 


>  <PLP.Chemscore.Internal.Correction>  (133) 


>  <PLP.Chemscore.Metal>  (133) 


>  <PLP.Fitness>  (133) 


>  <PLP.PLP>  (133) 


>  <PLP.ligand.clash>  (133) 


>  <PLP.ligand.torsion>  (133) 


>  <PLP.part.buried>  (133) 


>  <PLP.part.hbond>  (133) 


>  <PLP.part.metal>  (133) 


>  <PLP.part.nonpolar>  (133) 


>  <PLP.part.repulsive>  (133) 


>  <Version>  (133) 


$$$$
133|Compound_52|Compounds_3D_F|sdf|21|dock6|1
     RDKit          3D

 11 10  0  0  0  0  0  0  0  0999 V2000
  -10.2994  -17.1898   11.7020 O   0  0  0  0  0  0  0  0  0  0  0  0
  -11.0477  -18.4909   11.4489 S   0  0  0  0  0  0  0  0  0  0  0  0
  -10.1586  -19.3389   10.7365 O   0  0  0  0  0  0  0  0  0  0  0  0
  -11.6335  -18.8686   12.6870 O   0  0  0  0  0  0  0  0  0  0  0  0
  -12.1966  -18.1721   10.5038 O   0  0  0  0  0  0  0  0  0  0  0  0
  -12.7405  -19.3159    9.8430 C   0  0  0  0  0  0  0  0  0  0  0  0
  -14.0885  -18.9509    9.2171 C   0  0  0  0  0  0  0  0  0  0  0  0
  -14.4884  -19.9985    8.2750 N   0  0  0  0  0  0  0  0  0  0  0  0
  -14.6724  -21.2615    8.7100 C   0  0  0  0  0  0  0  0  0  0  0  0
  -14.5072  -21.5291    9.8808 O   0  0  0  0  0  0  0  0  0  0  0  0
  -15.1003  -22.3848    7.7001 B   0  0  0  0  0  0  0  0  0  0  0  0
  1  2  1  0
  2  3  2  0
  2  4  2  0
  2  5  1  0
  5  6  1  0
  6  7  1  0
  7  8  1  0
  8  9  1  0
  9 10  2  0
  9 11  1  0
M  END
>  <Gold.Gold.Protein.RotatedWaterAtoms>  (134) 


>  <Gold.Id.Protein>  (134) 


>  <Gold.PLP.Chemscore.CHOScore>  (134) 
0.0000

>  <Gold.PLP.Chemscore.Hbond>  (134) 
2.9600

>  <Gold.PLP.Chemscore.Internal.Correction>  (134) 
0.0793

>  <Gold.PLP.Chemscore.Metal>  (134) 
0.0000

>  <Gold.PLP.Fitness>  (134) 
32.8099

>  <Gold.PLP.PLP>  (134) 
-24.7757

>  <Gold.PLP.ligand.clash>  (134) 
0.0000

>  <Gold.PLP.ligand.torsion>  (134) 
0.4626

>  <Gold.PLP.part.buried>  (134) 
-4.4447

>  <Gold.PLP.part.hbond>  (134) 
-4.0000

>  <Gold.PLP.part.metal>  (134) 
0.0000

>  <Gold.PLP.part.nonpolar>  (134) 
-16.2888

>  <Gold.PLP.part.repulsive>  (134) 
0.3333

>  <Gold.Protein.RotatedAtoms>  (134) 


>  <Gold.Protein.RotatedTorsions>  (134) 


>  <Gold.Protein.RotatedWaterAtoms>  (134) 


>  <Gold.Version>  (134) 
5.3.0

>  <PLP.Chemscore.CHOScore>  (134) 


>  <PLP.Chemscore.Hbond>  (134) 


>  <PLP.Chemscore.Internal.Correction>  (134) 


>  <PLP.Chemscore.Metal>  (134) 


>  <PLP.Fitness>  (134) 


>  <PLP.PLP>  (134) 


>  <PLP.ligand.clash>  (134) 


>  <PLP.ligand.torsion>  (134) 


>  <PLP.part.buried>  (134) 


>  <PLP.part.hbond>  (134) 


>  <PLP.part.metal>  (134) 


>  <PLP.part.nonpolar>  (134) 


>  <PLP.part.repulsive>  (134) 


>  <Version>  (134) 


$$$$
134|Compound_52|Compounds_3D_F|sdf|21|dock7|1
     RDKit          3D

 11 10  0  0  0  0  0  0  0  0999 V2000
  -13.3736  -19.3956   13.1398 O   0  0  0  0  0  0  0  0  0  0  0  0
  -12.4375  -18.9278   12.0344 S   0  0  0  0  0  0  0  0  0  0  0  0
  -11.9592  -17.6479   12.4218 O   0  0  0  0  0  0  0  0  0  0  0  0
  -11.5660  -20.0146   11.7549 O   0  0  0  0  0  0  0  0  0  0  0  0
  -13.2837  -18.7175   10.7877 O   0  0  0  0  0  0  0  0  0  0  0  0
  -13.8653  -19.9156   10.2707 C   0  0  0  0  0  0  0  0  0  0  0  0
  -14.1957  -19.7244    8.7887 C   0  0  0  0  0  0  0  0  0  0  0  0
  -15.0997  -20.7896    8.3493 N   0  0  0  0  0  0  0  0  0  0  0  0
  -14.6071  -22.0056    8.0375 C   0  0  0  0  0  0  0  0  0  0  0  0
  -13.4162  -22.2164    8.1217 O   0  0  0  0  0  0  0  0  0  0  0  0
  -15.5759  -23.1473    7.5658 B   0  0  0  0  0  0  0  0  0  0  0  0
  1  2  1  0
  2  3  2  0
  2  4  2  0
  2  5  1  0
  5  6  1  0
  6  7  1  0
  7  8  1  0
  8  9  1  0
  9 10  2  0
  9 11  1  0
M  END
>  <Gold.Gold.Protein.RotatedWaterAtoms>  (135) 


>  <Gold.Id.Protein>  (135) 


>  <Gold.PLP.Chemscore.CHOScore>  (135) 
0.0000

>  <Gold.PLP.Chemscore.Hbond>  (135) 
3.8556

>  <Gold.PLP.Chemscore.Internal.Correction>  (135) 
0.0790

>  <Gold.PLP.Chemscore.Metal>  (135) 
0.0000

>  <Gold.PLP.Fitness>  (135) 
34.9983

>  <Gold.PLP.PLP>  (135) 
-24.1332

>  <Gold.PLP.ligand.clash>  (135) 
0.0000

>  <Gold.PLP.ligand.torsion>  (135) 
0.3904

>  <Gold.PLP.part.buried>  (135) 
-2.3411

>  <Gold.PLP.part.hbond>  (135) 
-5.2824

>  <Gold.PLP.part.metal>  (135) 
0.0000

>  <Gold.PLP.part.nonpolar>  (135) 
-17.0332

>  <Gold.PLP.part.repulsive>  (135) 
0.3154

>  <Gold.Protein.RotatedAtoms>  (135) 


>  <Gold.Protein.RotatedTorsions>  (135) 


>  <Gold.Protein.RotatedWaterAtoms>  (135) 


>  <Gold.Version>  (135) 
5.3.0

>  <PLP.Chemscore.CHOScore>  (135) 


>  <PLP.Chemscore.Hbond>  (135) 


>  <PLP.Chemscore.Internal.Correction>  (135) 


>  <PLP.Chemscore.Metal>  (135) 


>  <PLP.Fitness>  (135) 


>  <PLP.PLP>  (135) 


>  <PLP.ligand.clash>  (135) 


>  <PLP.ligand.torsion>  (135) 


>  <PLP.part.buried>  (135) 


>  <PLP.part.hbond>  (135) 


>  <PLP.part.metal>  (135) 


>  <PLP.part.nonpolar>  (135) 


>  <PLP.part.repulsive>  (135) 


>  <Version>  (135) 


$$$$
135|Compound_52|Compounds_3D_F|sdf|21|dock8|1
     RDKit          3D

 11 10  0  0  0  0  0  0  0  0999 V2000
  -11.2076  -17.3486   12.4684 O   0  0  0  0  0  0  0  0  0  0  0  0
  -11.3820  -18.6948   11.7795 S   0  0  0  0  0  0  0  0  0  0  0  0
  -10.4544  -18.7241   10.7045 O   0  0  0  0  0  0  0  0  0  0  0  0
  -11.3902  -19.6770   12.8062 O   0  0  0  0  0  0  0  0  0  0  0  0
  -12.7703  -18.7048   11.1573 O   0  0  0  0  0  0  0  0  0  0  0  0
  -12.7906  -19.1084    9.7870 C   0  0  0  0  0  0  0  0  0  0  0  0
  -14.2005  -18.9238    9.2213 C   0  0  0  0  0  0  0  0  0  0  0  0
  -14.4903  -20.0015    8.2729 N   0  0  0  0  0  0  0  0  0  0  0  0
  -14.6209  -21.2694    8.7130 C   0  0  0  0  0  0  0  0  0  0  0  0
  -14.4988  -21.5164    9.8936 O   0  0  0  0  0  0  0  0  0  0  0  0
  -14.9309  -22.4249    7.6964 B   0  0  0  0  0  0  0  0  0  0  0  0
  1  2  1  0
  2  3  2  0
  2  4  2  0
  2  5  1  0
  5  6  1  0
  6  7  1  0
  7  8  1  0
  8  9  1  0
  9 10  2  0
  9 11  1  0
M  END
>  <Gold.Gold.Protein.RotatedWaterAtoms>  (136) 


>  <Gold.Id.Protein>  (136) 


>  <Gold.PLP.Chemscore.CHOScore>  (136) 
0.0000

>  <Gold.PLP.Chemscore.Hbond>  (136) 
3.0000

>  <Gold.PLP.Chemscore.Internal.Correction>  (136) 
0.0790

>  <Gold.PLP.Chemscore.Metal>  (136) 
0.0000

>  <Gold.PLP.Fitness>  (136) 
33.4324

>  <Gold.PLP.PLP>  (136) 
-25.2560

>  <Gold.PLP.ligand.clash>  (136) 
0.0000

>  <Gold.PLP.ligand.torsion>  (136) 
0.4513

>  <Gold.PLP.part.buried>  (136) 
-4.6720

>  <Gold.PLP.part.hbond>  (136) 
-4.0000

>  <Gold.PLP.part.metal>  (136) 
0.0000

>  <Gold.PLP.part.nonpolar>  (136) 
-16.1732

>  <Gold.PLP.part.repulsive>  (136) 
0.3578

>  <Gold.Protein.RotatedAtoms>  (136) 


>  <Gold.Protein.RotatedTorsions>  (136) 


>  <Gold.Protein.RotatedWaterAtoms>  (136) 


>  <Gold.Version>  (136) 
5.3.0

>  <PLP.Chemscore.CHOScore>  (136) 


>  <PLP.Chemscore.Hbond>  (136) 


>  <PLP.Chemscore.Internal.Correction>  (136) 


>  <PLP.Chemscore.Metal>  (136) 


>  <PLP.Fitness>  (136) 


>  <PLP.PLP>  (136) 


>  <PLP.ligand.clash>  (136) 


>  <PLP.ligand.torsion>  (136) 


>  <PLP.part.buried>  (136) 


>  <PLP.part.hbond>  (136) 


>  <PLP.part.metal>  (136) 


>  <PLP.part.nonpolar>  (136) 


>  <PLP.part.repulsive>  (136) 


>  <Version>  (136) 


$$$$
136|Compound_52|Compounds_3D_F|sdf|21|dock9|1
     RDKit          3D

 11 10  0  0  0  0  0  0  0  0999 V2000
  -10.0550  -14.5196   12.6769 O   0  0  0  0  0  0  0  0  0  0  0  0
   -8.9895  -14.1974   11.6386 S   0  0  0  0  0  0  0  0  0  0  0  0
   -9.1474  -15.1404   10.5884 O   0  0  0  0  0  0  0  0  0  0  0  0
   -9.0491  -12.7948   11.4189 O   0  0  0  0  0  0  0  0  0  0  0  0
   -7.6384  -14.4800   12.2783 O   0  0  0  0  0  0  0  0  0  0  0  0
   -6.7742  -13.3440   12.3382 C   0  0  0  0  0  0  0  0  0  0  0  0
   -5.3838  -13.7843   12.8019 C   0  0  0  0  0  0  0  0  0  0  0  0
   -4.9005  -14.8633   11.9376 N   0  0  0  0  0  0  0  0  0  0  0  0
   -5.2830  -16.1354   12.1701 C   0  0  0  0  0  0  0  0  0  0  0  0
   -6.0272  -16.3849   13.0940 O   0  0  0  0  0  0  0  0  0  0  0  0
   -4.7645  -17.2924   11.2441 B   0  0  0  0  0  0  0  0  0  0  0  0
  1  2  1  0
  2  3  2  0
  2  4  2  0
  2  5  1  0
  5  6  1  0
  6  7  1  0
  7  8  1  0
  8  9  1  0
  9 10  2  0
  9 11  1  0
M  END
>  <Gold.Gold.Protein.RotatedWaterAtoms>  (137) 


>  <Gold.Id.Protein>  (137) 


>  <Gold.PLP.Chemscore.CHOScore>  (137) 
0.0000

>  <Gold.PLP.Chemscore.Hbond>  (137) 
2.9920

>  <Gold.PLP.Chemscore.Internal.Correction>  (137) 
0.0790

>  <Gold.PLP.Chemscore.Metal>  (137) 
0.0000

>  <Gold.PLP.Fitness>  (137) 
37.0255

>  <Gold.PLP.PLP>  (137) 
-28.4266

>  <Gold.PLP.ligand.clash>  (137) 
0.0000

>  <Gold.PLP.ligand.torsion>  (137) 
0.2281

>  <Gold.PLP.part.buried>  (137) 
-5.6090

>  <Gold.PLP.part.hbond>  (137) 
-6.0786

>  <Gold.PLP.part.metal>  (137) 
0.0000

>  <Gold.PLP.part.nonpolar>  (137) 
-17.3730

>  <Gold.PLP.part.repulsive>  (137) 
0.4753

>  <Gold.Protein.RotatedAtoms>  (137) 


>  <Gold.Protein.RotatedTorsions>  (137) 


>  <Gold.Protein.RotatedWaterAtoms>  (137) 


>  <Gold.Version>  (137) 
5.3.0

>  <PLP.Chemscore.CHOScore>  (137) 


>  <PLP.Chemscore.Hbond>  (137) 


>  <PLP.Chemscore.Internal.Correction>  (137) 


>  <PLP.Chemscore.Metal>  (137) 


>  <PLP.Fitness>  (137) 


>  <PLP.PLP>  (137) 


>  <PLP.ligand.clash>  (137) 


>  <PLP.ligand.torsion>  (137) 


>  <PLP.part.buried>  (137) 


>  <PLP.part.hbond>  (137) 


>  <PLP.part.metal>  (137) 


>  <PLP.part.nonpolar>  (137) 


>  <PLP.part.repulsive>  (137) 


>  <Version>  (137) 


$$$$
137|Compound_53|Compounds_3D_F|sdf|22|dock1|1
     RDKit          3D

  9  8  0  0  0  0  0  0  0  0999 V2000
   -8.8637  -14.6953   10.1954 O   0  0  0  0  0  0  0  0  0  0  0  0
   -8.5019  -14.4195   11.6481 S   0  0  0  0  0  0  0  0  0  0  0  0
   -9.6234  -13.7083   12.1525 O   0  0  0  0  0  0  0  0  0  0  0  0
   -7.0754  -13.3041   11.5411 C   0  0  0  0  0  0  0  0  0  0  0  0
   -5.9709  -13.7967   12.4776 C   0  0  0  0  0  0  0  0  0  0  0  0
   -5.1902  -14.8390   11.8068 N   0  0  0  0  0  0  0  0  0  0  0  0
   -5.3124  -16.1249   12.1920 C   0  0  0  0  0  0  0  0  0  0  0  0
   -6.0684  -16.4192   13.0933 O   0  0  0  0  0  0  0  0  0  0  0  0
   -4.4755  -17.2416   11.4730 B   0  0  0  0  0  0  0  0  0  0  0  0
  1  2  1  0
  2  3  2  0
  2  4  1  0
  4  5  1  0
  5  6  1  0
  6  7  1  0
  7  8  2  0
  7  9  1  0
M  END
>  <Gold.Gold.Protein.RotatedWaterAtoms>  (138) 


>  <Gold.Id.Protein>  (138) 


>  <Gold.PLP.Chemscore.CHOScore>  (138) 
0.0000

>  <Gold.PLP.Chemscore.Hbond>  (138) 
2.9833

>  <Gold.PLP.Chemscore.Internal.Correction>  (138) 
0.0440

>  <Gold.PLP.Chemscore.Metal>  (138) 
0.0000

>  <Gold.PLP.Fitness>  (138) 
34.6792

>  <Gold.PLP.PLP>  (138) 
-26.2118

>  <Gold.PLP.ligand.clash>  (138) 
0.0000

>  <Gold.PLP.ligand.torsion>  (138) 
0.2632

>  <Gold.PLP.part.buried>  (138) 
-5.9913

>  <Gold.PLP.part.hbond>  (138) 
-4.6345

>  <Gold.PLP.part.metal>  (138) 
0.0000

>  <Gold.PLP.part.nonpolar>  (138) 
-16.1684

>  <Gold.PLP.part.repulsive>  (138) 
0.2570

>  <Gold.Protein.RotatedAtoms>  (138) 


>  <Gold.Protein.RotatedTorsions>  (138) 


>  <Gold.Protein.RotatedWaterAtoms>  (138) 


>  <Gold.Version>  (138) 
5.3.0

>  <PLP.Chemscore.CHOScore>  (138) 


>  <PLP.Chemscore.Hbond>  (138) 


>  <PLP.Chemscore.Internal.Correction>  (138) 


>  <PLP.Chemscore.Metal>  (138) 


>  <PLP.Fitness>  (138) 


>  <PLP.PLP>  (138) 


>  <PLP.ligand.clash>  (138) 


>  <PLP.ligand.torsion>  (138) 


>  <PLP.part.buried>  (138) 


>  <PLP.part.hbond>  (138) 


>  <PLP.part.metal>  (138) 


>  <PLP.part.nonpolar>  (138) 


>  <PLP.part.repulsive>  (138) 


>  <Version>  (138) 


$$$$
138|Compound_53|Compounds_3D_F|sdf|22|dock2|1
     RDKit          3D

  9  8  0  0  0  0  0  0  0  0999 V2000
   -9.9780  -14.5409   12.8860 O   0  0  0  0  0  0  0  0  0  0  0  0
   -9.1178  -13.4172   12.3254 S   0  0  0  0  0  0  0  0  0  0  0  0
   -9.4613  -13.3760   10.9476 O   0  0  0  0  0  0  0  0  0  0  0  0
   -7.4204  -14.0305   12.5085 C   0  0  0  0  0  0  0  0  0  0  0  0
   -6.8438  -14.3562   11.1297 C   0  0  0  0  0  0  0  0  0  0  0  0
   -5.5126  -14.9478   11.2840 N   0  0  0  0  0  0  0  0  0  0  0  0
   -5.3497  -16.0514   12.0405 C   0  0  0  0  0  0  0  0  0  0  0  0
   -6.3046  -16.5548   12.5931 O   0  0  0  0  0  0  0  0  0  0  0  0
   -3.9230  -16.6849   12.2059 B   0  0  0  0  0  0  0  0  0  0  0  0
  1  2  1  0
  2  3  2  0
  2  4  1  0
  4  5  1  0
  5  6  1  0
  6  7  1  0
  7  8  2  0
  7  9  1  0
M  END
>  <Gold.Gold.Protein.RotatedWaterAtoms>  (139) 


>  <Gold.Id.Protein>  (139) 


>  <Gold.PLP.Chemscore.CHOScore>  (139) 
0.0000

>  <Gold.PLP.Chemscore.Hbond>  (139) 
3.0000

>  <Gold.PLP.Chemscore.Internal.Correction>  (139) 
0.0440

>  <Gold.PLP.Chemscore.Metal>  (139) 
0.0000

>  <Gold.PLP.Fitness>  (139) 
34.3656

>  <Gold.PLP.PLP>  (139) 
-25.4450

>  <Gold.PLP.ligand.clash>  (139) 
0.0000

>  <Gold.PLP.ligand.torsion>  (139) 
0.0617

>  <Gold.PLP.part.buried>  (139) 
-5.5877

>  <Gold.PLP.part.hbond>  (139) 
-4.9377

>  <Gold.PLP.part.metal>  (139) 
0.0000

>  <Gold.PLP.part.nonpolar>  (139) 
-16.1063

>  <Gold.PLP.part.repulsive>  (139) 
1.9557

>  <Gold.Protein.RotatedAtoms>  (139) 


>  <Gold.Protein.RotatedTorsions>  (139) 


>  <Gold.Protein.RotatedWaterAtoms>  (139) 


>  <Gold.Version>  (139) 
5.3.0

>  <PLP.Chemscore.CHOScore>  (139) 


>  <PLP.Chemscore.Hbond>  (139) 


>  <PLP.Chemscore.Internal.Correction>  (139) 


>  <PLP.Chemscore.Metal>  (139) 


>  <PLP.Fitness>  (139) 


>  <PLP.PLP>  (139) 


>  <PLP.ligand.clash>  (139) 


>  <PLP.ligand.torsion>  (139) 


>  <PLP.part.buried>  (139) 


>  <PLP.part.hbond>  (139) 


>  <PLP.part.metal>  (139) 


>  <PLP.part.nonpolar>  (139) 


>  <PLP.part.repulsive>  (139) 


>  <Version>  (139) 


$$$$
139|Compound_53|Compounds_3D_F|sdf|22|dock3|1
     RDKit          3D

  9  8  0  0  0  0  0  0  0  0999 V2000
   -8.8854  -14.8633   10.1651 O   0  0  0  0  0  0  0  0  0  0  0  0
   -8.5218  -14.6361   11.6257 S   0  0  0  0  0  0  0  0  0  0  0  0
   -9.5933  -13.8503   12.1283 O   0  0  0  0  0  0  0  0  0  0  0  0
   -7.0149  -13.6290   11.5515 C   0  0  0  0  0  0  0  0  0  0  0  0
   -5.9750  -14.1942   12.5203 C   0  0  0  0  0  0  0  0  0  0  0  0
   -4.9419  -14.9083   11.7662 N   0  0  0  0  0  0  0  0  0  0  0  0
   -4.7402  -16.2238   11.9801 C   0  0  0  0  0  0  0  0  0  0  0  0
   -5.4137  -16.8162   12.7962 O   0  0  0  0  0  0  0  0  0  0  0  0
   -3.6329  -16.9887   11.1720 B   0  0  0  0  0  0  0  0  0  0  0  0
  1  2  1  0
  2  3  2  0
  2  4  1  0
  4  5  1  0
  5  6  1  0
  6  7  1  0
  7  8  2  0
  7  9  1  0
M  END
>  <Gold.Gold.Protein.RotatedWaterAtoms>  (140) 


>  <Gold.Id.Protein>  (140) 


>  <Gold.PLP.Chemscore.CHOScore>  (140) 
0.0000

>  <Gold.PLP.Chemscore.Hbond>  (140) 
3.0000

>  <Gold.PLP.Chemscore.Internal.Correction>  (140) 
0.0440

>  <Gold.PLP.Chemscore.Metal>  (140) 
0.0000

>  <Gold.PLP.Fitness>  (140) 
33.4174

>  <Gold.PLP.PLP>  (140) 
-25.1971

>  <Gold.PLP.ligand.clash>  (140) 
0.0000

>  <Gold.PLP.ligand.torsion>  (140) 
0.4119

>  <Gold.PLP.part.buried>  (140) 
-6.3780

>  <Gold.PLP.part.hbond>  (140) 
-4.1649

>  <Gold.PLP.part.metal>  (140) 
0.0000

>  <Gold.PLP.part.nonpolar>  (140) 
-15.5318

>  <Gold.PLP.part.repulsive>  (140) 
0.2608

>  <Gold.Protein.RotatedAtoms>  (140) 


>  <Gold.Protein.RotatedTorsions>  (140) 


>  <Gold.Protein.RotatedWaterAtoms>  (140) 


>  <Gold.Version>  (140) 
5.3.0

>  <PLP.Chemscore.CHOScore>  (140) 


>  <PLP.Chemscore.Hbond>  (140) 


>  <PLP.Chemscore.Internal.Correction>  (140) 


>  <PLP.Chemscore.Metal>  (140) 


>  <PLP.Fitness>  (140) 


>  <PLP.PLP>  (140) 


>  <PLP.ligand.clash>  (140) 


>  <PLP.ligand.torsion>  (140) 


>  <PLP.part.buried>  (140) 


>  <PLP.part.hbond>  (140) 


>  <PLP.part.metal>  (140) 


>  <PLP.part.nonpolar>  (140) 


>  <PLP.part.repulsive>  (140) 


>  <Version>  (140) 


$$$$
140|Compound_58|Compounds_3D_F|sdf|23|dock1|1
     RDKit          3D

 15 14  0  0  0  0  0  0  0  0999 V2000
  -16.5129  -22.4727    7.3116 O   0  0  0  0  0  0  0  0  0  0  0  0
  -15.2351  -22.3292    7.6943 C   0  0  0  0  0  0  0  0  0  0  0  0
  -14.4424  -23.2218    7.5040 O   0  0  0  0  0  0  0  0  0  0  0  0
  -14.7871  -21.0548    8.3628 C   0  0  0  0  0  0  0  0  0  0  0  0
  -13.2722  -21.0938    8.5735 C   0  0  0  0  0  0  0  0  0  0  0  0
  -12.8454  -19.8995    9.4296 C   0  0  0  0  0  0  0  0  0  0  0  0
  -11.3485  -19.9994    9.7342 C   0  0  0  0  0  0  0  0  0  0  0  0
  -10.8976  -18.7482   10.4889 C   0  0  0  0  0  0  0  0  0  0  0  0
   -9.4361  -18.7341   10.5844 N   0  0  0  0  0  0  0  0  0  0  0  0
   -8.8026  -17.6571   11.0901 C   0  0  0  0  0  0  0  0  0  0  0  0
   -9.4439  -16.6995   11.4669 O   0  0  0  0  0  0  0  0  0  0  0  0
   -7.2370  -17.6428   11.1919 B   0  0  0  0  0  0  0  0  0  0  0  0
  -11.4913  -18.7556   11.8742 C   0  0  0  0  0  0  0  0  0  0  0  0
  -11.7348  -19.8052   12.4213 O   0  0  0  0  0  0  0  0  0  0  0  0
  -11.7509  -17.5967   12.4998 O   0  0  0  0  0  0  0  0  0  0  0  0
  1  2  1  0
  2  3  2  0
  2  4  1  0
  4  5  1  0
  5  6  1  0
  6  7  1  0
  7  8  1  0
  8  9  1  0
  8 13  1  0
  9 10  1  0
 10 11  2  0
 10 12  1  0
 13 14  2  0
 13 15  1  0
M  END
>  <Gold.Gold.Protein.RotatedWaterAtoms>  (141) 


>  <Gold.Id.Protein>  (141) 


>  <Gold.PLP.Chemscore.CHOScore>  (141) 
0.0000

>  <Gold.PLP.Chemscore.Hbond>  (141) 
4.0000

>  <Gold.PLP.Chemscore.Internal.Correction>  (141) 
0.0661

>  <Gold.PLP.Chemscore.Metal>  (141) 
0.0000

>  <Gold.PLP.Fitness>  (141) 
42.9397

>  <Gold.PLP.PLP>  (141) 
-32.6608

>  <Gold.PLP.ligand.clash>  (141) 
0.0000

>  <Gold.PLP.ligand.torsion>  (141) 
0.8936

>  <Gold.PLP.part.buried>  (141) 
-5.1529

>  <Gold.PLP.part.hbond>  (141) 
-5.8966

>  <Gold.PLP.part.metal>  (141) 
0.0000

>  <Gold.PLP.part.nonpolar>  (141) 
-21.5584

>  <Gold.PLP.part.repulsive>  (141) 
0.1253

>  <Gold.Protein.RotatedAtoms>  (141) 


>  <Gold.Protein.RotatedTorsions>  (141) 


>  <Gold.Protein.RotatedWaterAtoms>  (141) 


>  <Gold.Version>  (141) 
5.3.0

>  <PLP.Chemscore.CHOScore>  (141) 


>  <PLP.Chemscore.Hbond>  (141) 


>  <PLP.Chemscore.Internal.Correction>  (141) 


>  <PLP.Chemscore.Metal>  (141) 


>  <PLP.Fitness>  (141) 


>  <PLP.PLP>  (141) 


>  <PLP.ligand.clash>  (141) 


>  <PLP.ligand.torsion>  (141) 


>  <PLP.part.buried>  (141) 


>  <PLP.part.hbond>  (141) 


>  <PLP.part.metal>  (141) 


>  <PLP.part.nonpolar>  (141) 


>  <PLP.part.repulsive>  (141) 


>  <Version>  (141) 


$$$$
141|Compound_58|Compounds_3D_F|sdf|23|dock2|1
     RDKit          3D

 15 14  0  0  0  0  0  0  0  0999 V2000
  -13.6204  -19.7031   12.2124 O   0  0  0  0  0  0  0  0  0  0  0  0
  -13.4070  -19.4100   10.9208 C   0  0  0  0  0  0  0  0  0  0  0  0
  -14.3320  -19.3951   10.1427 O   0  0  0  0  0  0  0  0  0  0  0  0
  -12.0131  -19.0997   10.4387 C   0  0  0  0  0  0  0  0  0  0  0  0
  -11.2688  -18.2989   11.5091 C   0  0  0  0  0  0  0  0  0  0  0  0
   -9.8539  -17.9843   11.0188 C   0  0  0  0  0  0  0  0  0  0  0  0
   -9.2217  -16.9284   11.9293 C   0  0  0  0  0  0  0  0  0  0  0  0
   -8.0650  -16.2493   11.1951 C   0  0  0  0  0  0  0  0  0  0  0  0
   -7.4565  -15.2413   12.0663 N   0  0  0  0  0  0  0  0  0  0  0  0
   -6.4617  -14.4591   11.6021 C   0  0  0  0  0  0  0  0  0  0  0  0
   -6.0710  -14.5900   10.4617 O   0  0  0  0  0  0  0  0  0  0  0  0
   -5.8103  -13.3797   12.5361 B   0  0  0  0  0  0  0  0  0  0  0  0
   -8.5837  -15.5855    9.9452 C   0  0  0  0  0  0  0  0  0  0  0  0
   -8.2142  -15.9686    8.8602 O   0  0  0  0  0  0  0  0  0  0  0  0
   -9.4548  -14.5685   10.0370 O   0  0  0  0  0  0  0  0  0  0  0  0
  1  2  1  0
  2  3  2  0
  2  4  1  0
  4  5  1  0
  5  6  1  0
  6  7  1  0
  7  8  1  0
  8  9  1  0
  8 13  1  0
  9 10  1  0
 10 11  2  0
 10 12  1  0
 13 14  2  0
 13 15  1  0
M  END
>  <Gold.Gold.Protein.RotatedWaterAtoms>  (142) 


>  <Gold.Id.Protein>  (142) 


>  <Gold.PLP.Chemscore.CHOScore>  (142) 
0.0000

>  <Gold.PLP.Chemscore.Hbond>  (142) 
2.4423

>  <Gold.PLP.Chemscore.Internal.Correction>  (142) 
0.0661

>  <Gold.PLP.Chemscore.Metal>  (142) 
0.0000

>  <Gold.PLP.Fitness>  (142) 
35.1571

>  <Gold.PLP.PLP>  (142) 
-28.7843

>  <Gold.PLP.ligand.clash>  (142) 
0.0000

>  <Gold.PLP.ligand.torsion>  (142) 
0.5100

>  <Gold.PLP.part.buried>  (142) 
-5.7400

>  <Gold.PLP.part.hbond>  (142) 
-3.7910

>  <Gold.PLP.part.metal>  (142) 
0.0000

>  <Gold.PLP.part.nonpolar>  (142) 
-20.3847

>  <Gold.PLP.part.repulsive>  (142) 
0.9784

>  <Gold.Protein.RotatedAtoms>  (142) 


>  <Gold.Protein.RotatedTorsions>  (142) 


>  <Gold.Protein.RotatedWaterAtoms>  (142) 


>  <Gold.Version>  (142) 
5.3.0

>  <PLP.Chemscore.CHOScore>  (142) 


>  <PLP.Chemscore.Hbond>  (142) 


>  <PLP.Chemscore.Internal.Correction>  (142) 


>  <PLP.Chemscore.Metal>  (142) 


>  <PLP.Fitness>  (142) 


>  <PLP.PLP>  (142) 


>  <PLP.ligand.clash>  (142) 


>  <PLP.ligand.torsion>  (142) 


>  <PLP.part.buried>  (142) 


>  <PLP.part.hbond>  (142) 


>  <PLP.part.metal>  (142) 


>  <PLP.part.nonpolar>  (142) 


>  <PLP.part.repulsive>  (142) 


>  <Version>  (142) 


$$$$
142|Compound_58|Compounds_3D_F|sdf|23|dock3|1
     RDKit          3D

 15 14  0  0  0  0  0  0  0  0999 V2000
   -4.7668  -14.1876   12.1989 O   0  0  0  0  0  0  0  0  0  0  0  0
   -5.9032  -13.4780   12.1302 C   0  0  0  0  0  0  0  0  0  0  0  0
   -5.9522  -12.3666   12.6032 O   0  0  0  0  0  0  0  0  0  0  0  0
   -7.1202  -14.0665   11.4639 C   0  0  0  0  0  0  0  0  0  0  0  0
   -7.3929  -15.4589   12.0362 C   0  0  0  0  0  0  0  0  0  0  0  0
   -8.6760  -16.0211   11.4206 C   0  0  0  0  0  0  0  0  0  0  0  0
   -8.7004  -17.5421   11.5928 C   0  0  0  0  0  0  0  0  0  0  0  0
  -10.0775  -18.0774   11.1985 C   0  0  0  0  0  0  0  0  0  0  0  0
  -10.1776  -19.4910   11.5683 N   0  0  0  0  0  0  0  0  0  0  0  0
  -11.1753  -19.9099   12.3720 C   0  0  0  0  0  0  0  0  0  0  0  0
  -11.9910  -19.1153   12.7884 O   0  0  0  0  0  0  0  0  0  0  0  0
  -11.2817  -21.4245   12.7678 B   0  0  0  0  0  0  0  0  0  0  0  0
  -10.2653  -17.9332    9.7099 C   0  0  0  0  0  0  0  0  0  0  0  0
   -9.5154  -18.4981    8.9491 O   0  0  0  0  0  0  0  0  0  0  0  0
  -11.2645  -17.1767    9.2292 O   0  0  0  0  0  0  0  0  0  0  0  0
  1  2  1  0
  2  3  2  0
  2  4  1  0
  4  5  1  0
  5  6  1  0
  6  7  1  0
  7  8  1  0
  8  9  1  0
  8 13  1  0
  9 10  1  0
 10 11  2  0
 10 12  1  0
 13 14  2  0
 13 15  1  0
M  END
>  <Gold.Gold.Protein.RotatedWaterAtoms>  (143) 


>  <Gold.Id.Protein>  (143) 


>  <Gold.PLP.Chemscore.CHOScore>  (143) 
0.0000

>  <Gold.PLP.Chemscore.Hbond>  (143) 
2.7680

>  <Gold.PLP.Chemscore.Internal.Correction>  (143) 
0.0661

>  <Gold.PLP.Chemscore.Metal>  (143) 
0.0000

>  <Gold.PLP.Fitness>  (143) 
39.0176

>  <Gold.PLP.PLP>  (143) 
-31.1535

>  <Gold.PLP.ligand.clash>  (143) 
0.0000

>  <Gold.PLP.ligand.torsion>  (143) 
0.2530

>  <Gold.PLP.part.buried>  (143) 
-5.2532

>  <Gold.PLP.part.hbond>  (143) 
-4.9381

>  <Gold.PLP.part.metal>  (143) 
0.0000

>  <Gold.PLP.part.nonpolar>  (143) 
-21.2625

>  <Gold.PLP.part.repulsive>  (143) 
0.3897

>  <Gold.Protein.RotatedAtoms>  (143) 


>  <Gold.Protein.RotatedTorsions>  (143) 


>  <Gold.Protein.RotatedWaterAtoms>  (143) 


>  <Gold.Version>  (143) 
5.3.0

>  <PLP.Chemscore.CHOScore>  (143) 


>  <PLP.Chemscore.Hbond>  (143) 


>  <PLP.Chemscore.Internal.Correction>  (143) 


>  <PLP.Chemscore.Metal>  (143) 


>  <PLP.Fitness>  (143) 


>  <PLP.PLP>  (143) 


>  <PLP.ligand.clash>  (143) 


>  <PLP.ligand.torsion>  (143) 


>  <PLP.part.buried>  (143) 


>  <PLP.part.hbond>  (143) 


>  <PLP.part.metal>  (143) 


>  <PLP.part.nonpolar>  (143) 


>  <PLP.part.repulsive>  (143) 


>  <Version>  (143) 


$$$$
143|Compound_58|Compounds_3D_F|sdf|23|dock4|1
     RDKit          3D

 15 14  0  0  0  0  0  0  0  0999 V2000
  -16.6063  -22.4714    7.1018 O   0  0  0  0  0  0  0  0  0  0  0  0
  -15.4066  -22.5462    7.6973 C   0  0  0  0  0  0  0  0  0  0  0  0
  -14.6389  -23.4323    7.4027 O   0  0  0  0  0  0  0  0  0  0  0  0
  -15.0151  -21.5256    8.7350 C   0  0  0  0  0  0  0  0  0  0  0  0
  -13.6015  -21.0178    8.4441 C   0  0  0  0  0  0  0  0  0  0  0  0
  -13.2659  -19.8692    9.3979 C   0  0  0  0  0  0  0  0  0  0  0  0
  -11.7460  -19.7113    9.4911 C   0  0  0  0  0  0  0  0  0  0  0  0
  -11.4129  -18.4035   10.2101 C   0  0  0  0  0  0  0  0  0  0  0  0
   -9.9814  -18.1231   10.0783 N   0  0  0  0  0  0  0  0  0  0  0  0
   -9.0748  -18.9959   10.5613 C   0  0  0  0  0  0  0  0  0  0  0  0
   -9.4453  -20.0145   11.1048 O   0  0  0  0  0  0  0  0  0  0  0  0
   -7.5415  -18.6946   10.4198 B   0  0  0  0  0  0  0  0  0  0  0  0
  -11.7679  -18.5279   11.6697 C   0  0  0  0  0  0  0  0  0  0  0  0
  -12.2332  -19.5601   12.0922 O   0  0  0  0  0  0  0  0  0  0  0  0
  -11.5685  -17.4923   12.5000 O   0  0  0  0  0  0  0  0  0  0  0  0
  1  2  1  0
  2  3  2  0
  2  4  1  0
  4  5  1  0
  5  6  1  0
  6  7  1  0
  7  8  1  0
  8  9  1  0
  8 13  1  0
  9 10  1  0
 10 11  2  0
 10 12  1  0
 13 14  2  0
 13 15  1  0
M  END
>  <Gold.Gold.Protein.RotatedWaterAtoms>  (144) 


>  <Gold.Id.Protein>  (144) 


>  <Gold.PLP.Chemscore.CHOScore>  (144) 
0.0000

>  <Gold.PLP.Chemscore.Hbond>  (144) 
4.0000

>  <Gold.PLP.Chemscore.Internal.Correction>  (144) 
0.0661

>  <Gold.PLP.Chemscore.Metal>  (144) 
0.0000

>  <Gold.PLP.Fitness>  (144) 
42.9830

>  <Gold.PLP.PLP>  (144) 
-31.6134

>  <Gold.PLP.ligand.clash>  (144) 
0.0000

>  <Gold.PLP.ligand.torsion>  (144) 
0.3482

>  <Gold.PLP.part.buried>  (144) 
-4.5560

>  <Gold.PLP.part.hbond>  (144) 
-4.8741

>  <Gold.PLP.part.metal>  (144) 
0.0000

>  <Gold.PLP.part.nonpolar>  (144) 
-22.0376

>  <Gold.PLP.part.repulsive>  (144) 
0.1307

>  <Gold.Protein.RotatedAtoms>  (144) 


>  <Gold.Protein.RotatedTorsions>  (144) 


>  <Gold.Protein.RotatedWaterAtoms>  (144) 


>  <Gold.Version>  (144) 
5.3.0

>  <PLP.Chemscore.CHOScore>  (144) 


>  <PLP.Chemscore.Hbond>  (144) 


>  <PLP.Chemscore.Internal.Correction>  (144) 


>  <PLP.Chemscore.Metal>  (144) 


>  <PLP.Fitness>  (144) 


>  <PLP.PLP>  (144) 


>  <PLP.ligand.clash>  (144) 


>  <PLP.ligand.torsion>  (144) 


>  <PLP.part.buried>  (144) 


>  <PLP.part.hbond>  (144) 


>  <PLP.part.metal>  (144) 


>  <PLP.part.nonpolar>  (144) 


>  <PLP.part.repulsive>  (144) 


>  <Version>  (144) 


$$$$
144|Compound_58|Compounds_3D_F|sdf|23|dock5|1
     RDKit          3D

 15 14  0  0  0  0  0  0  0  0999 V2000
   -5.7157  -10.6791   13.0112 O   0  0  0  0  0  0  0  0  0  0  0  0
   -6.3841  -11.6767   12.4131 C   0  0  0  0  0  0  0  0  0  0  0  0
   -7.4574  -11.4634   11.8994 O   0  0  0  0  0  0  0  0  0  0  0  0
   -5.7976  -13.0647   12.3820 C   0  0  0  0  0  0  0  0  0  0  0  0
   -6.6905  -13.9778   11.5396 C   0  0  0  0  0  0  0  0  0  0  0  0
   -6.0944  -15.3867   11.5085 C   0  0  0  0  0  0  0  0  0  0  0  0
   -6.6777  -16.1612   10.3238 C   0  0  0  0  0  0  0  0  0  0  0  0
   -8.1556  -16.4544   10.5848 C   0  0  0  0  0  0  0  0  0  0  0  0
   -8.3323  -17.8845   10.8469 N   0  0  0  0  0  0  0  0  0  0  0  0
   -9.5316  -18.3558   11.2423 C   0  0  0  0  0  0  0  0  0  0  0  0
  -10.4652  -17.5945   11.3803 O   0  0  0  0  0  0  0  0  0  0  0  0
   -9.7199  -19.8879   11.5230 B   0  0  0  0  0  0  0  0  0  0  0  0
   -8.9669  -16.0613    9.3770 C   0  0  0  0  0  0  0  0  0  0  0  0
   -8.7415  -16.5726    8.3055 O   0  0  0  0  0  0  0  0  0  0  0  0
   -9.9389  -15.1425    9.4908 O   0  0  0  0  0  0  0  0  0  0  0  0
  1  2  1  0
  2  3  2  0
  2  4  1  0
  4  5  1  0
  5  6  1  0
  6  7  1  0
  7  8  1  0
  8  9  1  0
  8 13  1  0
  9 10  1  0
 10 11  2  0
 10 12  1  0
 13 14  2  0
 13 15  1  0
M  END
>  <Gold.Gold.Protein.RotatedWaterAtoms>  (145) 


>  <Gold.Id.Protein>  (145) 


>  <Gold.PLP.Chemscore.CHOScore>  (145) 
0.0000

>  <Gold.PLP.Chemscore.Hbond>  (145) 
2.6000

>  <Gold.PLP.Chemscore.Internal.Correction>  (145) 
0.0661

>  <Gold.PLP.Chemscore.Metal>  (145) 
0.0000

>  <Gold.PLP.Fitness>  (145) 
37.8474

>  <Gold.PLP.PLP>  (145) 
-31.7320

>  <Gold.PLP.ligand.clash>  (145) 
0.0000

>  <Gold.PLP.ligand.torsion>  (145) 
0.8754

>  <Gold.PLP.part.buried>  (145) 
-6.1781

>  <Gold.PLP.part.hbond>  (145) 
-4.1124

>  <Gold.PLP.part.metal>  (145) 
0.0000

>  <Gold.PLP.part.nonpolar>  (145) 
-21.7739

>  <Gold.PLP.part.repulsive>  (145) 
0.2429

>  <Gold.Protein.RotatedAtoms>  (145) 


>  <Gold.Protein.RotatedTorsions>  (145) 


>  <Gold.Protein.RotatedWaterAtoms>  (145) 


>  <Gold.Version>  (145) 
5.3.0

>  <PLP.Chemscore.CHOScore>  (145) 


>  <PLP.Chemscore.Hbond>  (145) 


>  <PLP.Chemscore.Internal.Correction>  (145) 


>  <PLP.Chemscore.Metal>  (145) 


>  <PLP.Fitness>  (145) 


>  <PLP.PLP>  (145) 


>  <PLP.ligand.clash>  (145) 


>  <PLP.ligand.torsion>  (145) 


>  <PLP.part.buried>  (145) 


>  <PLP.part.hbond>  (145) 


>  <PLP.part.metal>  (145) 


>  <PLP.part.nonpolar>  (145) 


>  <PLP.part.repulsive>  (145) 


>  <Version>  (145) 


$$$$
145|Compound_58|Compounds_3D_F|sdf|23|dock6|1
     RDKit          3D

 15 14  0  0  0  0  0  0  0  0999 V2000
   -4.6285  -12.1610   12.6506 O   0  0  0  0  0  0  0  0  0  0  0  0
   -5.5650  -13.1104   12.5046 C   0  0  0  0  0  0  0  0  0  0  0  0
   -5.3328  -14.2470   12.8444 O   0  0  0  0  0  0  0  0  0  0  0  0
   -6.9076  -12.7606   11.9158 C   0  0  0  0  0  0  0  0  0  0  0  0
   -7.8097  -13.9962   11.9310 C   0  0  0  0  0  0  0  0  0  0  0  0
   -7.2176  -15.0712   11.0171 C   0  0  0  0  0  0  0  0  0  0  0  0
   -7.6987  -16.4508   11.4742 C   0  0  0  0  0  0  0  0  0  0  0  0
   -9.0924  -16.7186   10.9048 C   0  0  0  0  0  0  0  0  0  0  0  0
   -9.4459  -18.1242   11.1162 N   0  0  0  0  0  0  0  0  0  0  0  0
  -10.5747  -18.4444   11.7796 C   0  0  0  0  0  0  0  0  0  0  0  0
  -11.2983  -17.5675   12.2011 O   0  0  0  0  0  0  0  0  0  0  0  0
  -10.9525  -19.9504   12.0057 B   0  0  0  0  0  0  0  0  0  0  0  0
   -9.0988  -16.4158    9.4283 C   0  0  0  0  0  0  0  0  0  0  0  0
   -8.3385  -16.9959    8.6895 O   0  0  0  0  0  0  0  0  0  0  0  0
   -9.9478  -15.5011    8.9340 O   0  0  0  0  0  0  0  0  0  0  0  0
  1  2  1  0
  2  3  2  0
  2  4  1  0
  4  5  1  0
  5  6  1  0
  6  7  1  0
  7  8  1  0
  8  9  1  0
  8 13  1  0
  9 10  1  0
 10 11  2  0
 10 12  1  0
 13 14  2  0
 13 15  1  0
M  END
>  <Gold.Gold.Protein.RotatedWaterAtoms>  (146) 


>  <Gold.Id.Protein>  (146) 


>  <Gold.PLP.Chemscore.CHOScore>  (146) 
0.0000

>  <Gold.PLP.Chemscore.Hbond>  (146) 
3.5824

>  <Gold.PLP.Chemscore.Internal.Correction>  (146) 
0.0661

>  <Gold.PLP.Chemscore.Metal>  (146) 
0.0000

>  <Gold.PLP.Fitness>  (146) 
46.5583

>  <Gold.PLP.PLP>  (146) 
-36.4458

>  <Gold.PLP.ligand.clash>  (146) 
0.0000

>  <Gold.PLP.ligand.torsion>  (146) 
0.3504

>  <Gold.PLP.part.buried>  (146) 
-7.2888

>  <Gold.PLP.part.hbond>  (146) 
-6.0000

>  <Gold.PLP.part.metal>  (146) 
0.0000

>  <Gold.PLP.part.nonpolar>  (146) 
-23.5500

>  <Gold.PLP.part.repulsive>  (146) 
0.3377

>  <Gold.Protein.RotatedAtoms>  (146) 


>  <Gold.Protein.RotatedTorsions>  (146) 


>  <Gold.Protein.RotatedWaterAtoms>  (146) 


>  <Gold.Version>  (146) 
5.3.0

>  <PLP.Chemscore.CHOScore>  (146) 


>  <PLP.Chemscore.Hbond>  (146) 


>  <PLP.Chemscore.Internal.Correction>  (146) 


>  <PLP.Chemscore.Metal>  (146) 


>  <PLP.Fitness>  (146) 


>  <PLP.PLP>  (146) 


>  <PLP.ligand.clash>  (146) 


>  <PLP.ligand.torsion>  (146) 


>  <PLP.part.buried>  (146) 


>  <PLP.part.hbond>  (146) 


>  <PLP.part.metal>  (146) 


>  <PLP.part.nonpolar>  (146) 


>  <PLP.part.repulsive>  (146) 


>  <Version>  (146) 


$$$$
146|Compound_58|Compounds_3D_F|sdf|23|dock7|1
     RDKit          3D

 15 14  0  0  0  0  0  0  0  0999 V2000
   -4.3231  -12.2011   12.8501 O   0  0  0  0  0  0  0  0  0  0  0  0
   -5.5169  -12.7225   12.5296 C   0  0  0  0  0  0  0  0  0  0  0  0
   -6.4461  -11.9934   12.2716 O   0  0  0  0  0  0  0  0  0  0  0  0
   -5.7008  -14.2179   12.4918 C   0  0  0  0  0  0  0  0  0  0  0  0
   -7.1766  -14.5453   12.2560 C   0  0  0  0  0  0  0  0  0  0  0  0
   -7.3347  -16.0496   12.0249 C   0  0  0  0  0  0  0  0  0  0  0  0
   -8.8211  -16.3922   11.8957 C   0  0  0  0  0  0  0  0  0  0  0  0
   -8.9710  -17.8296   11.3959 C   0  0  0  0  0  0  0  0  0  0  0  0
   -8.3039  -17.9694   10.0995 N   0  0  0  0  0  0  0  0  0  0  0  0
   -8.3231  -19.1525    9.4539 C   0  0  0  0  0  0  0  0  0  0  0  0
   -8.8941  -20.1016    9.9471 O   0  0  0  0  0  0  0  0  0  0  0  0
   -7.6080  -19.3013    8.0653 B   0  0  0  0  0  0  0  0  0  0  0  0
  -10.4340  -18.1596   11.2459 C   0  0  0  0  0  0  0  0  0  0  0  0
  -10.9239  -18.2453   10.1445 O   0  0  0  0  0  0  0  0  0  0  0  0
  -11.1931  -18.3569   12.3352 O   0  0  0  0  0  0  0  0  0  0  0  0
  1  2  1  0
  2  3  2  0
  2  4  1  0
  4  5  1  0
  5  6  1  0
  6  7  1  0
  7  8  1  0
  8  9  1  0
  8 13  1  0
  9 10  1  0
 10 11  2  0
 10 12  1  0
 13 14  2  0
 13 15  1  0
M  END
>  <Gold.Gold.Protein.RotatedWaterAtoms>  (147) 


>  <Gold.Id.Protein>  (147) 


>  <Gold.PLP.Chemscore.CHOScore>  (147) 
0.0000

>  <Gold.PLP.Chemscore.Hbond>  (147) 
2.0000

>  <Gold.PLP.Chemscore.Internal.Correction>  (147) 
0.0661

>  <Gold.PLP.Chemscore.Metal>  (147) 
0.0000

>  <Gold.PLP.Fitness>  (147) 
38.7782

>  <Gold.PLP.PLP>  (147) 
-33.4936

>  <Gold.PLP.ligand.clash>  (147) 
0.0000

>  <Gold.PLP.ligand.torsion>  (147) 
0.3907

>  <Gold.PLP.part.buried>  (147) 
-7.4923

>  <Gold.PLP.part.hbond>  (147) 
-3.3434

>  <Gold.PLP.part.metal>  (147) 
0.0000

>  <Gold.PLP.part.nonpolar>  (147) 
-22.9473

>  <Gold.PLP.part.repulsive>  (147) 
0.2496

>  <Gold.Protein.RotatedAtoms>  (147) 


>  <Gold.Protein.RotatedTorsions>  (147) 


>  <Gold.Protein.RotatedWaterAtoms>  (147) 


>  <Gold.Version>  (147) 
5.3.0

>  <PLP.Chemscore.CHOScore>  (147) 


>  <PLP.Chemscore.Hbond>  (147) 


>  <PLP.Chemscore.Internal.Correction>  (147) 


>  <PLP.Chemscore.Metal>  (147) 


>  <PLP.Fitness>  (147) 


>  <PLP.PLP>  (147) 


>  <PLP.ligand.clash>  (147) 


>  <PLP.ligand.torsion>  (147) 


>  <PLP.part.buried>  (147) 


>  <PLP.part.hbond>  (147) 


>  <PLP.part.metal>  (147) 


>  <PLP.part.nonpolar>  (147) 


>  <PLP.part.repulsive>  (147) 


>  <Version>  (147) 


$$$$
147|Compound_58|Compounds_3D_F|sdf|23|dock8|1
     RDKit          3D

 15 14  0  0  0  0  0  0  0  0999 V2000
   -4.6805  -12.2938   12.7673 O   0  0  0  0  0  0  0  0  0  0  0  0
   -5.6037  -13.2181   12.4622 C   0  0  0  0  0  0  0  0  0  0  0  0
   -5.3015  -14.3882   12.4317 O   0  0  0  0  0  0  0  0  0  0  0  0
   -7.0185  -12.7981   12.1564 C   0  0  0  0  0  0  0  0  0  0  0  0
   -7.9762  -13.9402   12.5015 C   0  0  0  0  0  0  0  0  0  0  0  0
   -8.0161  -14.9398   11.3437 C   0  0  0  0  0  0  0  0  0  0  0  0
   -8.6418  -16.2519   11.8240 C   0  0  0  0  0  0  0  0  0  0  0  0
   -9.0122  -17.1121   10.6153 C   0  0  0  0  0  0  0  0  0  0  0  0
   -9.5061  -18.4128   11.0728 N   0  0  0  0  0  0  0  0  0  0  0  0
  -10.5738  -18.4796   11.8929 C   0  0  0  0  0  0  0  0  0  0  0  0
  -11.1260  -17.4614   12.2514 O   0  0  0  0  0  0  0  0  0  0  0  0
  -11.1020  -19.8734   12.3827 B   0  0  0  0  0  0  0  0  0  0  0  0
   -7.7948  -17.3135    9.7497 C   0  0  0  0  0  0  0  0  0  0  0  0
   -7.7770  -16.8790    8.6221 O   0  0  0  0  0  0  0  0  0  0  0  0
   -6.7311  -17.9761   10.2304 O   0  0  0  0  0  0  0  0  0  0  0  0
  1  2  1  0
  2  3  2  0
  2  4  1  0
  4  5  1  0
  5  6  1  0
  6  7  1  0
  7  8  1  0
  8  9  1  0
  8 13  1  0
  9 10  1  0
 10 11  2  0
 10 12  1  0
 13 14  2  0
 13 15  1  0
M  END
>  <Gold.Gold.Protein.RotatedWaterAtoms>  (148) 


>  <Gold.Id.Protein>  (148) 


>  <Gold.PLP.Chemscore.CHOScore>  (148) 
0.0000

>  <Gold.PLP.Chemscore.Hbond>  (148) 
3.0000

>  <Gold.PLP.Chemscore.Internal.Correction>  (148) 
0.0661

>  <Gold.PLP.Chemscore.Metal>  (148) 
0.0000

>  <Gold.PLP.Fitness>  (148) 
42.2506

>  <Gold.PLP.PLP>  (148) 
-34.4463

>  <Gold.PLP.ligand.clash>  (148) 
0.0000

>  <Gold.PLP.ligand.torsion>  (148) 
0.6308

>  <Gold.PLP.part.buried>  (148) 
-8.2752

>  <Gold.PLP.part.hbond>  (148) 
-4.0174

>  <Gold.PLP.part.metal>  (148) 
0.0000

>  <Gold.PLP.part.nonpolar>  (148) 
-23.0300

>  <Gold.PLP.part.repulsive>  (148) 
0.3259

>  <Gold.Protein.RotatedAtoms>  (148) 


>  <Gold.Protein.RotatedTorsions>  (148) 


>  <Gold.Protein.RotatedWaterAtoms>  (148) 


>  <Gold.Version>  (148) 
5.3.0

>  <PLP.Chemscore.CHOScore>  (148) 


>  <PLP.Chemscore.Hbond>  (148) 


>  <PLP.Chemscore.Internal.Correction>  (148) 


>  <PLP.Chemscore.Metal>  (148) 


>  <PLP.Fitness>  (148) 


>  <PLP.PLP>  (148) 


>  <PLP.ligand.clash>  (148) 


>  <PLP.ligand.torsion>  (148) 


>  <PLP.part.buried>  (148) 


>  <PLP.part.hbond>  (148) 


>  <PLP.part.metal>  (148) 


>  <PLP.part.nonpolar>  (148) 


>  <PLP.part.repulsive>  (148) 


>  <Version>  (148) 


$$$$
148|Compound_58|Compounds_3D_F|sdf|23|dock9|1
     RDKit          3D

 15 14  0  0  0  0  0  0  0  0999 V2000
   -8.5635   -9.7910   10.7025 O   0  0  0  0  0  0  0  0  0  0  0  0
   -7.9250  -10.5707   11.5880 C   0  0  0  0  0  0  0  0  0  0  0  0
   -6.9384  -10.1612   12.1540 O   0  0  0  0  0  0  0  0  0  0  0  0
   -8.4368  -11.9585   11.8772 C   0  0  0  0  0  0  0  0  0  0  0  0
   -7.3053  -12.9703   11.6863 C   0  0  0  0  0  0  0  0  0  0  0  0
   -7.7533  -14.3397   12.2014 C   0  0  0  0  0  0  0  0  0  0  0  0
   -6.7501  -15.4061   11.7542 C   0  0  0  0  0  0  0  0  0  0  0  0
   -7.1177  -15.8957   10.3530 C   0  0  0  0  0  0  0  0  0  0  0  0
   -7.5618  -17.2896   10.4221 N   0  0  0  0  0  0  0  0  0  0  0  0
   -8.7930  -17.5842   10.8849 C   0  0  0  0  0  0  0  0  0  0  0  0
   -9.5336  -16.6937   11.2436 O   0  0  0  0  0  0  0  0  0  0  0  0
   -9.2677  -19.0778   10.9588 B   0  0  0  0  0  0  0  0  0  0  0  0
   -5.9122  -15.7967    9.4537 C   0  0  0  0  0  0  0  0  0  0  0  0
   -5.9849  -15.1906    8.4107 O   0  0  0  0  0  0  0  0  0  0  0  0
   -4.7583  -16.3826    9.8103 O   0  0  0  0  0  0  0  0  0  0  0  0
  1  2  1  0
  2  3  2  0
  2  4  1  0
  4  5  1  0
  5  6  1  0
  6  7  1  0
  7  8  1  0
  8  9  1  0
  8 13  1  0
  9 10  1  0
 10 11  2  0
 10 12  1  0
 13 14  2  0
 13 15  1  0
M  END
>  <Gold.Gold.Protein.RotatedWaterAtoms>  (149) 


>  <Gold.Id.Protein>  (149) 


>  <Gold.PLP.Chemscore.CHOScore>  (149) 
0.0000

>  <Gold.PLP.Chemscore.Hbond>  (149) 
3.7308

>  <Gold.PLP.Chemscore.Internal.Correction>  (149) 
0.0602

>  <Gold.PLP.Chemscore.Metal>  (149) 
0.0000

>  <Gold.PLP.Fitness>  (149) 
46.6775

>  <Gold.PLP.PLP>  (149) 
-37.9279

>  <Gold.PLP.ligand.clash>  (149) 
0.0000

>  <Gold.PLP.ligand.torsion>  (149) 
1.2515

>  <Gold.PLP.part.buried>  (149) 
-8.2582

>  <Gold.PLP.part.hbond>  (149) 
-6.2636

>  <Gold.PLP.part.metal>  (149) 
0.0000

>  <Gold.PLP.part.nonpolar>  (149) 
-24.1174

>  <Gold.PLP.part.repulsive>  (149) 
0.5119

>  <Gold.Protein.RotatedAtoms>  (149) 


>  <Gold.Protein.RotatedTorsions>  (149) 


>  <Gold.Protein.RotatedWaterAtoms>  (149) 


>  <Gold.Version>  (149) 
5.3.0

>  <PLP.Chemscore.CHOScore>  (149) 


>  <PLP.Chemscore.Hbond>  (149) 


>  <PLP.Chemscore.Internal.Correction>  (149) 


>  <PLP.Chemscore.Metal>  (149) 


>  <PLP.Fitness>  (149) 


>  <PLP.PLP>  (149) 


>  <PLP.ligand.clash>  (149) 


>  <PLP.ligand.torsion>  (149) 


>  <PLP.part.buried>  (149) 


>  <PLP.part.hbond>  (149) 


>  <PLP.part.metal>  (149) 


>  <PLP.part.nonpolar>  (149) 


>  <PLP.part.repulsive>  (149) 


>  <Version>  (149) 


$$$$
149|Compound_59|Compounds_3D_F|sdf|24|dock1|1
     RDKit          3D

 17 16  0  0  0  0  0  0  0  0999 V2000
   -4.4588  -12.2061   13.2718 O   0  0  0  0  0  0  0  0  0  0  0  0
   -5.5449  -12.3922   12.5067 C   0  0  0  0  0  0  0  0  0  0  0  0
   -6.3186  -11.4818   12.3225 O   0  0  0  0  0  0  0  0  0  0  0  0
   -5.8016  -13.7371   11.8767 C   0  0  0  0  0  0  0  0  0  0  0  0
   -7.1193  -14.3061   12.4064 C   0  0  0  0  0  0  0  0  0  0  0  0
   -7.3792  -15.6714   11.7663 C   0  0  0  0  0  0  0  0  0  0  0  0
   -8.8210  -16.1012   12.0493 C   0  0  0  0  0  0  0  0  0  0  0  0
   -9.1134  -17.4141   11.3220 C   0  0  0  0  0  0  0  0  0  0  0  0
  -10.5543  -17.8439   11.6046 C   0  0  0  0  0  0  0  0  0  0  0  0
  -10.9388  -18.9886   10.6648 C   0  0  0  0  0  0  0  0  0  0  0  0
  -12.4589  -19.1695   10.6768 C   0  0  0  0  0  0  0  0  0  0  0  0
  -12.9061  -19.8097    9.3621 C   0  0  0  0  0  0  0  0  0  0  0  0
  -14.4153  -19.6244    9.1921 C   0  0  0  0  0  0  0  0  0  0  0  0
  -14.9200  -20.5941    8.2166 N   0  0  0  0  0  0  0  0  0  0  0  0
  -14.7807  -21.9146    8.4450 C   0  0  0  0  0  0  0  0  0  0  0  0
  -14.2378  -22.3011    9.4579 O   0  0  0  0  0  0  0  0  0  0  0  0
  -15.3212  -22.9537    7.3992 B   0  0  0  0  0  0  0  0  0  0  0  0
  1  2  1  0
  2  3  2  0
  2  4  1  0
  4  5  1  0
  5  6  1  0
  6  7  1  0
  7  8  1  0
  8  9  1  0
  9 10  1  0
 10 11  1  0
 11 12  1  0
 12 13  1  0
 13 14  1  0
 14 15  1  0
 15 16  2  0
 15 17  1  0
M  END
>  <Gold.Gold.Protein.RotatedWaterAtoms>  (150) 


>  <Gold.Id.Protein>  (150) 


>  <Gold.PLP.Chemscore.CHOScore>  (150) 
0.0000

>  <Gold.PLP.Chemscore.Hbond>  (150) 
2.0000

>  <Gold.PLP.Chemscore.Internal.Correction>  (150) 
0.1935

>  <Gold.PLP.Chemscore.Metal>  (150) 
0.0000

>  <Gold.PLP.Fitness>  (150) 
52.3243

>  <Gold.PLP.PLP>  (150) 
-46.9801

>  <Gold.PLP.ligand.clash>  (150) 
0.0000

>  <Gold.PLP.ligand.torsion>  (150) 
0.4247

>  <Gold.PLP.part.buried>  (150) 
-6.3479

>  <Gold.PLP.part.hbond>  (150) 
-5.0000

>  <Gold.PLP.part.metal>  (150) 
0.0000

>  <Gold.PLP.part.nonpolar>  (150) 
-36.1654

>  <Gold.PLP.part.repulsive>  (150) 
0.5036

>  <Gold.Protein.RotatedAtoms>  (150) 


>  <Gold.Protein.RotatedTorsions>  (150) 


>  <Gold.Protein.RotatedWaterAtoms>  (150) 


>  <Gold.Version>  (150) 
5.3.0

>  <PLP.Chemscore.CHOScore>  (150) 


>  <PLP.Chemscore.Hbond>  (150) 


>  <PLP.Chemscore.Internal.Correction>  (150) 


>  <PLP.Chemscore.Metal>  (150) 


>  <PLP.Fitness>  (150) 


>  <PLP.PLP>  (150) 


>  <PLP.ligand.clash>  (150) 


>  <PLP.ligand.torsion>  (150) 


>  <PLP.part.buried>  (150) 


>  <PLP.part.hbond>  (150) 


>  <PLP.part.metal>  (150) 


>  <PLP.part.nonpolar>  (150) 


>  <PLP.part.repulsive>  (150) 


>  <Version>  (150) 


$$$$
150|Compound_59|Compounds_3D_F|sdf|24|dock2|1
     RDKit          3D

 17 16  0  0  0  0  0  0  0  0999 V2000
   -4.5990  -14.4951   12.1423 O   0  0  0  0  0  0  0  0  0  0  0  0
   -5.5316  -13.5471   12.3187 C   0  0  0  0  0  0  0  0  0  0  0  0
   -5.2279  -12.4822   12.8036 O   0  0  0  0  0  0  0  0  0  0  0  0
   -6.9593  -13.8093   11.9129 C   0  0  0  0  0  0  0  0  0  0  0  0
   -7.2176  -15.3173   11.8992 C   0  0  0  0  0  0  0  0  0  0  0  0
   -8.6853  -15.5802   11.5556 C   0  0  0  0  0  0  0  0  0  0  0  0
   -8.9672  -17.0826   11.6381 C   0  0  0  0  0  0  0  0  0  0  0  0
  -10.4639  -17.3090   11.8544 C   0  0  0  0  0  0  0  0  0  0  0  0
  -10.7540  -18.8110   11.8800 C   0  0  0  0  0  0  0  0  0  0  0  0
  -12.2644  -19.0403   11.7934 C   0  0  0  0  0  0  0  0  0  0  0  0
  -12.7205  -18.8902   10.3397 C   0  0  0  0  0  0  0  0  0  0  0  0
  -13.9882  -19.7155   10.1157 C   0  0  0  0  0  0  0  0  0  0  0  0
  -14.1674  -19.9790    8.6193 C   0  0  0  0  0  0  0  0  0  0  0  0
  -15.2887  -20.8998    8.4160 N   0  0  0  0  0  0  0  0  0  0  0  0
  -15.0549  -22.2084    8.1970 C   0  0  0  0  0  0  0  0  0  0  0  0
  -13.9165  -22.6248    8.1681 O   0  0  0  0  0  0  0  0  0  0  0  0
  -16.2568  -23.1951    7.9785 B   0  0  0  0  0  0  0  0  0  0  0  0
  1  2  1  0
  2  3  2  0
  2  4  1  0
  4  5  1  0
  5  6  1  0
  6  7  1  0
  7  8  1  0
  8  9  1  0
  9 10  1  0
 10 11  1  0
 11 12  1  0
 12 13  1  0
 13 14  1  0
 14 15  1  0
 15 16  2  0
 15 17  1  0
M  END
>  <Gold.Gold.Protein.RotatedWaterAtoms>  (151) 


>  <Gold.Id.Protein>  (151) 


>  <Gold.PLP.Chemscore.CHOScore>  (151) 
0.0000

>  <Gold.PLP.Chemscore.Hbond>  (151) 
2.0000

>  <Gold.PLP.Chemscore.Internal.Correction>  (151) 
0.1579

>  <Gold.PLP.Chemscore.Metal>  (151) 
0.0000

>  <Gold.PLP.Fitness>  (151) 
50.3045

>  <Gold.PLP.PLP>  (151) 
-46.1076

>  <Gold.PLP.ligand.clash>  (151) 
0.0000

>  <Gold.PLP.ligand.torsion>  (151) 
0.9805

>  <Gold.PLP.part.buried>  (151) 
-1.7049

>  <Gold.PLP.part.hbond>  (151) 
-3.8196

>  <Gold.PLP.part.metal>  (151) 
0.0000

>  <Gold.PLP.part.nonpolar>  (151) 
-40.0138

>  <Gold.PLP.part.repulsive>  (151) 
0.5988

>  <Gold.Protein.RotatedAtoms>  (151) 


>  <Gold.Protein.RotatedTorsions>  (151) 


>  <Gold.Protein.RotatedWaterAtoms>  (151) 


>  <Gold.Version>  (151) 
5.3.0

>  <PLP.Chemscore.CHOScore>  (151) 


>  <PLP.Chemscore.Hbond>  (151) 


>  <PLP.Chemscore.Internal.Correction>  (151) 


>  <PLP.Chemscore.Metal>  (151) 


>  <PLP.Fitness>  (151) 


>  <PLP.PLP>  (151) 


>  <PLP.ligand.clash>  (151) 


>  <PLP.ligand.torsion>  (151) 


>  <PLP.part.buried>  (151) 


>  <PLP.part.hbond>  (151) 


>  <PLP.part.metal>  (151) 


>  <PLP.part.nonpolar>  (151) 


>  <PLP.part.repulsive>  (151) 


>  <Version>  (151) 


$$$$
151|Compound_59|Compounds_3D_F|sdf|24|dock3|1
     RDKit          3D

 17 16  0  0  0  0  0  0  0  0999 V2000
   -8.5194  -10.0695   10.7667 O   0  0  0  0  0  0  0  0  0  0  0  0
   -7.8942  -10.9408   11.5727 C   0  0  0  0  0  0  0  0  0  0  0  0
   -6.8118  -10.6670   12.0364 O   0  0  0  0  0  0  0  0  0  0  0  0
   -8.5406  -12.2623   11.9002 C   0  0  0  0  0  0  0  0  0  0  0  0
   -7.6209  -13.4035   11.4610 C   0  0  0  0  0  0  0  0  0  0  0  0
   -8.1685  -14.7315   11.9883 C   0  0  0  0  0  0  0  0  0  0  0  0
   -7.5310  -15.8889   11.2152 C   0  0  0  0  0  0  0  0  0  0  0  0
   -8.1707  -17.2072   11.6526 C   0  0  0  0  0  0  0  0  0  0  0  0
   -9.5254  -17.3710   10.9606 C   0  0  0  0  0  0  0  0  0  0  0  0
  -10.3485  -18.4312   11.6953 C   0  0  0  0  0  0  0  0  0  0  0  0
  -11.7886  -18.4087   11.1765 C   0  0  0  0  0  0  0  0  0  0  0  0
  -12.7095  -19.0729   12.2008 C   0  0  0  0  0  0  0  0  0  0  0  0
  -12.3024  -20.5370   12.3787 C   0  0  0  0  0  0  0  0  0  0  0  0
  -12.2316  -20.8545   13.8072 N   0  0  0  0  0  0  0  0  0  0  0  0
  -11.1950  -21.5681   14.2883 C   0  0  0  0  0  0  0  0  0  0  0  0
  -10.3202  -21.9477   13.5395 O   0  0  0  0  0  0  0  0  0  0  0  0
  -11.1195  -21.9088   15.8193 B   0  0  0  0  0  0  0  0  0  0  0  0
  1  2  1  0
  2  3  2  0
  2  4  1  0
  4  5  1  0
  5  6  1  0
  6  7  1  0
  7  8  1  0
  8  9  1  0
  9 10  1  0
 10 11  1  0
 11 12  1  0
 12 13  1  0
 13 14  1  0
 14 15  1  0
 15 16  2  0
 15 17  1  0
M  END
>  <Gold.Gold.Protein.RotatedWaterAtoms>  (152) 


>  <Gold.Id.Protein>  (152) 


>  <Gold.PLP.Chemscore.CHOScore>  (152) 
0.0000

>  <Gold.PLP.Chemscore.Hbond>  (152) 
1.0103

>  <Gold.PLP.Chemscore.Internal.Correction>  (152) 
0.1386

>  <Gold.PLP.Chemscore.Metal>  (152) 
0.0000

>  <Gold.PLP.Fitness>  (152) 
48.1799

>  <Gold.PLP.PLP>  (152) 
-46.6462

>  <Gold.PLP.ligand.clash>  (152) 
0.0000

>  <Gold.PLP.ligand.torsion>  (152) 
0.8179

>  <Gold.PLP.part.buried>  (152) 
-7.7975

>  <Gold.PLP.part.hbond>  (152) 
-3.9791

>  <Gold.PLP.part.metal>  (152) 
0.0000

>  <Gold.PLP.part.nonpolar>  (152) 
-35.2012

>  <Gold.PLP.part.repulsive>  (152) 
0.3536

>  <Gold.Protein.RotatedAtoms>  (152) 


>  <Gold.Protein.RotatedTorsions>  (152) 


>  <Gold.Protein.RotatedWaterAtoms>  (152) 


>  <Gold.Version>  (152) 
5.3.0

>  <PLP.Chemscore.CHOScore>  (152) 


>  <PLP.Chemscore.Hbond>  (152) 


>  <PLP.Chemscore.Internal.Correction>  (152) 


>  <PLP.Chemscore.Metal>  (152) 


>  <PLP.Fitness>  (152) 


>  <PLP.PLP>  (152) 


>  <PLP.ligand.clash>  (152) 


>  <PLP.ligand.torsion>  (152) 


>  <PLP.part.buried>  (152) 


>  <PLP.part.hbond>  (152) 


>  <PLP.part.metal>  (152) 


>  <PLP.part.nonpolar>  (152) 


>  <PLP.part.repulsive>  (152) 


>  <Version>  (152) 


$$$$
152|Compound_59|Compounds_3D_F|sdf|24|dock4|1
     RDKit          3D

 17 16  0  0  0  0  0  0  0  0999 V2000
   -4.3643  -12.1997   13.0964 O   0  0  0  0  0  0  0  0  0  0  0  0
   -5.4962  -12.7188   12.5973 C   0  0  0  0  0  0  0  0  0  0  0  0
   -6.4137  -11.9918   12.2952 O   0  0  0  0  0  0  0  0  0  0  0  0
   -5.6252  -14.2091   12.4136 C   0  0  0  0  0  0  0  0  0  0  0  0
   -7.1051  -14.5867   12.3248 C   0  0  0  0  0  0  0  0  0  0  0  0
   -7.2409  -15.9717   11.6886 C   0  0  0  0  0  0  0  0  0  0  0  0
   -8.7233  -16.2995   11.4920 C   0  0  0  0  0  0  0  0  0  0  0  0
   -8.8947  -17.8112   11.3381 C   0  0  0  0  0  0  0  0  0  0  0  0
  -10.3786  -18.1412   11.1650 C   0  0  0  0  0  0  0  0  0  0  0  0
  -10.5223  -19.4556   10.3949 C   0  0  0  0  0  0  0  0  0  0  0  0
  -12.0071  -19.7856   10.2218 C   0  0  0  0  0  0  0  0  0  0  0  0
  -12.6357  -18.8022    9.2337 C   0  0  0  0  0  0  0  0  0  0  0  0
  -14.1556  -18.9772    9.2372 C   0  0  0  0  0  0  0  0  0  0  0  0
  -14.5276  -20.0384    8.2981 N   0  0  0  0  0  0  0  0  0  0  0  0
  -14.5434  -21.3229    8.7045 C   0  0  0  0  0  0  0  0  0  0  0  0
  -14.2498  -21.6012    9.8475 O   0  0  0  0  0  0  0  0  0  0  0  0
  -14.9417  -22.4602    7.6978 B   0  0  0  0  0  0  0  0  0  0  0  0
  1  2  1  0
  2  3  2  0
  2  4  1  0
  4  5  1  0
  5  6  1  0
  6  7  1  0
  7  8  1  0
  8  9  1  0
  9 10  1  0
 10 11  1  0
 11 12  1  0
 12 13  1  0
 13 14  1  0
 14 15  1  0
 15 16  2  0
 15 17  1  0
M  END
>  <Gold.Gold.Protein.RotatedWaterAtoms>  (153) 


>  <Gold.Id.Protein>  (153) 


>  <Gold.PLP.Chemscore.CHOScore>  (153) 
0.0000

>  <Gold.PLP.Chemscore.Hbond>  (153) 
2.0000

>  <Gold.PLP.Chemscore.Internal.Correction>  (153) 
0.1386

>  <Gold.PLP.Chemscore.Metal>  (153) 
0.0000

>  <Gold.PLP.Fitness>  (153) 
52.9712

>  <Gold.PLP.PLP>  (153) 
-48.8217

>  <Gold.PLP.ligand.clash>  (153) 
0.0000

>  <Gold.PLP.ligand.torsion>  (153) 
0.9946

>  <Gold.PLP.part.buried>  (153) 
-8.2782

>  <Gold.PLP.part.hbond>  (153) 
-3.6390

>  <Gold.PLP.part.metal>  (153) 
0.0000

>  <Gold.PLP.part.nonpolar>  (153) 
-37.0673

>  <Gold.PLP.part.repulsive>  (153) 
0.5238

>  <Gold.Protein.RotatedAtoms>  (153) 


>  <Gold.Protein.RotatedTorsions>  (153) 


>  <Gold.Protein.RotatedWaterAtoms>  (153) 


>  <Gold.Version>  (153) 
5.3.0

>  <PLP.Chemscore.CHOScore>  (153) 


>  <PLP.Chemscore.Hbond>  (153) 


>  <PLP.Chemscore.Internal.Correction>  (153) 


>  <PLP.Chemscore.Metal>  (153) 


>  <PLP.Fitness>  (153) 


>  <PLP.PLP>  (153) 


>  <PLP.ligand.clash>  (153) 


>  <PLP.ligand.torsion>  (153) 


>  <PLP.part.buried>  (153) 


>  <PLP.part.hbond>  (153) 


>  <PLP.part.metal>  (153) 


>  <PLP.part.nonpolar>  (153) 


>  <PLP.part.repulsive>  (153) 


>  <Version>  (153) 


$$$$
153|Compound_59|Compounds_3D_F|sdf|24|dock5|1
     RDKit          3D

 17 16  0  0  0  0  0  0  0  0999 V2000
   -4.5806  -12.2995   13.1194 O   0  0  0  0  0  0  0  0  0  0  0  0
   -5.5255  -13.0859   12.5824 C   0  0  0  0  0  0  0  0  0  0  0  0
   -5.2928  -14.2529   12.3699 O   0  0  0  0  0  0  0  0  0  0  0  0
   -6.8782  -12.5144   12.2428 C   0  0  0  0  0  0  0  0  0  0  0  0
   -7.9565  -13.5702   12.4945 C   0  0  0  0  0  0  0  0  0  0  0  0
   -7.8487  -14.6714   11.4376 C   0  0  0  0  0  0  0  0  0  0  0  0
   -8.6848  -15.8782   11.8713 C   0  0  0  0  0  0  0  0  0  0  0  0
   -8.2096  -17.1233   11.1214 C   0  0  0  0  0  0  0  0  0  0  0  0
   -9.0451  -18.3295   11.5547 C   0  0  0  0  0  0  0  0  0  0  0  0
  -10.4576  -18.2045   10.9797 C   0  0  0  0  0  0  0  0  0  0  0  0
  -11.3839  -19.2010   11.6816 C   0  0  0  0  0  0  0  0  0  0  0  0
  -12.7573  -19.1804   11.0094 C   0  0  0  0  0  0  0  0  0  0  0  0
  -13.5980  -20.3473   11.5312 C   0  0  0  0  0  0  0  0  0  0  0  0
  -13.6759  -20.2786   12.9927 N   0  0  0  0  0  0  0  0  0  0  0  0
  -13.6957  -21.4122   13.7205 C   0  0  0  0  0  0  0  0  0  0  0  0
  -13.6491  -22.4897   13.1666 O   0  0  0  0  0  0  0  0  0  0  0  0
  -13.7798  -21.3384   15.2867 B   0  0  0  0  0  0  0  0  0  0  0  0
  1  2  1  0
  2  3  2  0
  2  4  1  0
  4  5  1  0
  5  6  1  0
  6  7  1  0
  7  8  1  0
  8  9  1  0
  9 10  1  0
 10 11  1  0
 11 12  1  0
 12 13  1  0
 13 14  1  0
 14 15  1  0
 15 16  2  0
 15 17  1  0
M  END
>  <Gold.Gold.Protein.RotatedWaterAtoms>  (154) 


>  <Gold.Id.Protein>  (154) 


>  <Gold.PLP.Chemscore.CHOScore>  (154) 
0.0000

>  <Gold.PLP.Chemscore.Hbond>  (154) 
2.0000

>  <Gold.PLP.Chemscore.Internal.Correction>  (154) 
0.1386

>  <Gold.PLP.Chemscore.Metal>  (154) 
0.0000

>  <Gold.PLP.Fitness>  (154) 
49.7919

>  <Gold.PLP.PLP>  (154) 
-45.2820

>  <Gold.PLP.ligand.clash>  (154) 
0.0000

>  <Gold.PLP.ligand.torsion>  (154) 
0.8143

>  <Gold.PLP.part.buried>  (154) 
-7.9345

>  <Gold.PLP.part.hbond>  (154) 
-5.0000

>  <Gold.PLP.part.metal>  (154) 
0.0000

>  <Gold.PLP.part.nonpolar>  (154) 
-33.1826

>  <Gold.PLP.part.repulsive>  (154) 
0.3613

>  <Gold.Protein.RotatedAtoms>  (154) 


>  <Gold.Protein.RotatedTorsions>  (154) 


>  <Gold.Protein.RotatedWaterAtoms>  (154) 


>  <Gold.Version>  (154) 
5.3.0

>  <PLP.Chemscore.CHOScore>  (154) 


>  <PLP.Chemscore.Hbond>  (154) 


>  <PLP.Chemscore.Internal.Correction>  (154) 


>  <PLP.Chemscore.Metal>  (154) 


>  <PLP.Fitness>  (154) 


>  <PLP.PLP>  (154) 


>  <PLP.ligand.clash>  (154) 


>  <PLP.ligand.torsion>  (154) 


>  <PLP.part.buried>  (154) 


>  <PLP.part.hbond>  (154) 


>  <PLP.part.metal>  (154) 


>  <PLP.part.nonpolar>  (154) 


>  <PLP.part.repulsive>  (154) 


>  <Version>  (154) 


$$$$
154|Compound_59|Compounds_3D_F|sdf|24|dock6|1
     RDKit          3D

 17 16  0  0  0  0  0  0  0  0999 V2000
   -4.8698  -14.1429   12.0851 O   0  0  0  0  0  0  0  0  0  0  0  0
   -6.0077  -13.4471   12.2292 C   0  0  0  0  0  0  0  0  0  0  0  0
   -5.9704  -12.2947   12.5926 O   0  0  0  0  0  0  0  0  0  0  0  0
   -7.3337  -14.1020   11.9389 C   0  0  0  0  0  0  0  0  0  0  0  0
   -7.1887  -15.6209   12.0514 C   0  0  0  0  0  0  0  0  0  0  0  0
   -8.2393  -16.3002   11.1705 C   0  0  0  0  0  0  0  0  0  0  0  0
   -8.1403  -17.8188   11.3374 C   0  0  0  0  0  0  0  0  0  0  0  0
   -9.1902  -18.4976   10.4570 C   0  0  0  0  0  0  0  0  0  0  0  0
  -10.5854  -18.2169   11.0187 C   0  0  0  0  0  0  0  0  0  0  0  0
  -11.6206  -18.3414    9.8988 C   0  0  0  0  0  0  0  0  0  0  0  0
  -12.9833  -18.6939   10.5008 C   0  0  0  0  0  0  0  0  0  0  0  0
  -13.9831  -18.9631    9.3755 C   0  0  0  0  0  0  0  0  0  0  0  0
  -15.0813  -19.9000    9.8824 C   0  0  0  0  0  0  0  0  0  0  0  0
  -15.3838  -20.8996    8.8548 N   0  0  0  0  0  0  0  0  0  0  0  0
  -14.4646  -21.8285    8.5271 C   0  0  0  0  0  0  0  0  0  0  0  0
  -13.3867  -21.8378    9.0824 O   0  0  0  0  0  0  0  0  0  0  0  0
  -14.7887  -22.8995    7.4255 B   0  0  0  0  0  0  0  0  0  0  0  0
  1  2  1  0
  2  3  2  0
  2  4  1  0
  4  5  1  0
  5  6  1  0
  6  7  1  0
  7  8  1  0
  8  9  1  0
  9 10  1  0
 10 11  1  0
 11 12  1  0
 12 13  1  0
 13 14  1  0
 14 15  1  0
 15 16  2  0
 15 17  1  0
M  END
>  <Gold.Gold.Protein.RotatedWaterAtoms>  (155) 


>  <Gold.Id.Protein>  (155) 


>  <Gold.PLP.Chemscore.CHOScore>  (155) 
0.0000

>  <Gold.PLP.Chemscore.Hbond>  (155) 
2.0000

>  <Gold.PLP.Chemscore.Internal.Correction>  (155) 
0.1386

>  <Gold.PLP.Chemscore.Metal>  (155) 
0.0000

>  <Gold.PLP.Fitness>  (155) 
48.7905

>  <Gold.PLP.PLP>  (155) 
-45.1561

>  <Gold.PLP.ligand.clash>  (155) 
0.0000

>  <Gold.PLP.ligand.torsion>  (155) 
1.2521

>  <Gold.PLP.part.buried>  (155) 
-7.5742

>  <Gold.PLP.part.hbond>  (155) 
-3.0000

>  <Gold.PLP.part.metal>  (155) 
0.0000

>  <Gold.PLP.part.nonpolar>  (155) 
-34.5925

>  <Gold.PLP.part.repulsive>  (155) 
0.4301

>  <Gold.Protein.RotatedAtoms>  (155) 


>  <Gold.Protein.RotatedTorsions>  (155) 


>  <Gold.Protein.RotatedWaterAtoms>  (155) 


>  <Gold.Version>  (155) 
5.3.0

>  <PLP.Chemscore.CHOScore>  (155) 


>  <PLP.Chemscore.Hbond>  (155) 


>  <PLP.Chemscore.Internal.Correction>  (155) 


>  <PLP.Chemscore.Metal>  (155) 


>  <PLP.Fitness>  (155) 


>  <PLP.PLP>  (155) 


>  <PLP.ligand.clash>  (155) 


>  <PLP.ligand.torsion>  (155) 


>  <PLP.part.buried>  (155) 


>  <PLP.part.hbond>  (155) 


>  <PLP.part.metal>  (155) 


>  <PLP.part.nonpolar>  (155) 


>  <PLP.part.repulsive>  (155) 


>  <Version>  (155) 


$$$$
155|Compound_59|Compounds_3D_F|sdf|24|dock7|1
     RDKit          3D

 17 16  0  0  0  0  0  0  0  0999 V2000
   -5.3486  -10.0523   12.4325 O   0  0  0  0  0  0  0  0  0  0  0  0
   -6.2950  -10.9749   12.2027 C   0  0  0  0  0  0  0  0  0  0  0  0
   -7.3690  -10.6425   11.7585 O   0  0  0  0  0  0  0  0  0  0  0  0
   -6.0200  -12.4268   12.4992 C   0  0  0  0  0  0  0  0  0  0  0  0
   -7.1900  -13.2796   12.0046 C   0  0  0  0  0  0  0  0  0  0  0  0
   -6.8249  -14.7612   12.1180 C   0  0  0  0  0  0  0  0  0  0  0  0
   -7.7474  -15.5843   11.2151 C   0  0  0  0  0  0  0  0  0  0  0  0
   -7.3826  -17.0650   11.3285 C   0  0  0  0  0  0  0  0  0  0  0  0
   -8.5007  -17.9137   10.7199 C   0  0  0  0  0  0  0  0  0  0  0  0
   -9.7630  -17.7833   11.5749 C   0  0  0  0  0  0  0  0  0  0  0  0
  -10.8446  -18.7219   11.0339 C   0  0  0  0  0  0  0  0  0  0  0  0
  -12.0585  -18.6897   11.9633 C   0  0  0  0  0  0  0  0  0  0  0  0
  -12.9859  -19.8605   11.6317 C   0  0  0  0  0  0  0  0  0  0  0  0
  -13.7439  -20.2375   12.8275 N   0  0  0  0  0  0  0  0  0  0  0  0
  -13.0941  -20.6006   13.9506 C   0  0  0  0  0  0  0  0  0  0  0  0
  -11.8819  -20.6155   13.9722 O   0  0  0  0  0  0  0  0  0  0  0  0
  -13.9065  -21.0050   15.2319 B   0  0  0  0  0  0  0  0  0  0  0  0
  1  2  1  0
  2  3  2  0
  2  4  1  0
  4  5  1  0
  5  6  1  0
  6  7  1  0
  7  8  1  0
  8  9  1  0
  9 10  1  0
 10 11  1  0
 11 12  1  0
 12 13  1  0
 13 14  1  0
 14 15  1  0
 15 16  2  0
 15 17  1  0
M  END
>  <Gold.Gold.Protein.RotatedWaterAtoms>  (156) 


>  <Gold.Id.Protein>  (156) 


>  <Gold.PLP.Chemscore.CHOScore>  (156) 
0.0000

>  <Gold.PLP.Chemscore.Hbond>  (156) 
1.9360

>  <Gold.PLP.Chemscore.Internal.Correction>  (156) 
0.1386

>  <Gold.PLP.Chemscore.Metal>  (156) 
0.0000

>  <Gold.PLP.Fitness>  (156) 
46.4426

>  <Gold.PLP.PLP>  (156) 
-41.3507

>  <Gold.PLP.ligand.clash>  (156) 
0.0000

>  <Gold.PLP.ligand.torsion>  (156) 
0.4273

>  <Gold.PLP.part.buried>  (156) 
-3.7637

>  <Gold.PLP.part.hbond>  (156) 
-4.0000

>  <Gold.PLP.part.metal>  (156) 
0.0000

>  <Gold.PLP.part.nonpolar>  (156) 
-34.4542

>  <Gold.PLP.part.repulsive>  (156) 
0.3087

>  <Gold.Protein.RotatedAtoms>  (156) 


>  <Gold.Protein.RotatedTorsions>  (156) 


>  <Gold.Protein.RotatedWaterAtoms>  (156) 


>  <Gold.Version>  (156) 
5.3.0

>  <PLP.Chemscore.CHOScore>  (156) 


>  <PLP.Chemscore.Hbond>  (156) 


>  <PLP.Chemscore.Internal.Correction>  (156) 


>  <PLP.Chemscore.Metal>  (156) 


>  <PLP.Fitness>  (156) 


>  <PLP.PLP>  (156) 


>  <PLP.ligand.clash>  (156) 


>  <PLP.ligand.torsion>  (156) 


>  <PLP.part.buried>  (156) 


>  <PLP.part.hbond>  (156) 


>  <PLP.part.metal>  (156) 


>  <PLP.part.nonpolar>  (156) 


>  <PLP.part.repulsive>  (156) 


>  <Version>  (156) 


$$$$
156|Compound_59|Compounds_3D_F|sdf|24|dock8|1
     RDKit          3D

 17 16  0  0  0  0  0  0  0  0999 V2000
   -4.3021  -12.1985   13.0085 O   0  0  0  0  0  0  0  0  0  0  0  0
   -5.5424  -12.1267   12.5023 C   0  0  0  0  0  0  0  0  0  0  0  0
   -6.0109  -11.0546   12.1983 O   0  0  0  0  0  0  0  0  0  0  0  0
   -6.3531  -13.3831   12.3130 C   0  0  0  0  0  0  0  0  0  0  0  0
   -7.7446  -13.0193   11.7912 C   0  0  0  0  0  0  0  0  0  0  0  0
   -8.7418  -14.1067   12.1968 C   0  0  0  0  0  0  0  0  0  0  0  0
   -8.3090  -15.4459   11.5942 C   0  0  0  0  0  0  0  0  0  0  0  0
   -9.4801  -16.4280   11.6416 C   0  0  0  0  0  0  0  0  0  0  0  0
   -9.0479  -17.7664   11.0394 C   0  0  0  0  0  0  0  0  0  0  0  0
  -10.1699  -18.7916   11.2169 C   0  0  0  0  0  0  0  0  0  0  0  0
  -11.3070  -18.4771   10.2413 C   0  0  0  0  0  0  0  0  0  0  0  0
  -12.1812  -19.7187   10.0606 C   0  0  0  0  0  0  0  0  0  0  0  0
  -13.2751  -19.4268    9.0316 C   0  0  0  0  0  0  0  0  0  0  0  0
  -14.2944  -20.4777    9.0903 N   0  0  0  0  0  0  0  0  0  0  0  0
  -14.3787  -21.3906    8.1030 C   0  0  0  0  0  0  0  0  0  0  0  0
  -13.6111  -21.3430    7.1655 O   0  0  0  0  0  0  0  0  0  0  0  0
  -15.4713  -22.5165    8.1657 B   0  0  0  0  0  0  0  0  0  0  0  0
  1  2  1  0
  2  3  2  0
  2  4  1  0
  4  5  1  0
  5  6  1  0
  6  7  1  0
  7  8  1  0
  8  9  1  0
  9 10  1  0
 10 11  1  0
 11 12  1  0
 12 13  1  0
 13 14  1  0
 14 15  1  0
 15 16  2  0
 15 17  1  0
M  END
>  <Gold.Gold.Protein.RotatedWaterAtoms>  (157) 


>  <Gold.Id.Protein>  (157) 


>  <Gold.PLP.Chemscore.CHOScore>  (157) 
0.0000

>  <Gold.PLP.Chemscore.Hbond>  (157) 
0.7040

>  <Gold.PLP.Chemscore.Internal.Correction>  (157) 
0.1386

>  <Gold.PLP.Chemscore.Metal>  (157) 
0.0000

>  <Gold.PLP.Fitness>  (157) 
46.4906

>  <Gold.PLP.PLP>  (157) 
-45.2093

>  <Gold.PLP.ligand.clash>  (157) 
0.0000

>  <Gold.PLP.ligand.torsion>  (157) 
0.4846

>  <Gold.PLP.part.buried>  (157) 
-3.8618

>  <Gold.PLP.part.hbond>  (157) 
-3.2850

>  <Gold.PLP.part.metal>  (157) 
0.0000

>  <Gold.PLP.part.nonpolar>  (157) 
-38.1974

>  <Gold.PLP.part.repulsive>  (157) 
0.5209

>  <Gold.Protein.RotatedAtoms>  (157) 


>  <Gold.Protein.RotatedTorsions>  (157) 


>  <Gold.Protein.RotatedWaterAtoms>  (157) 


>  <Gold.Version>  (157) 
5.3.0

>  <PLP.Chemscore.CHOScore>  (157) 


>  <PLP.Chemscore.Hbond>  (157) 


>  <PLP.Chemscore.Internal.Correction>  (157) 


>  <PLP.Chemscore.Metal>  (157) 


>  <PLP.Fitness>  (157) 


>  <PLP.PLP>  (157) 


>  <PLP.ligand.clash>  (157) 


>  <PLP.ligand.torsion>  (157) 


>  <PLP.part.buried>  (157) 


>  <PLP.part.hbond>  (157) 


>  <PLP.part.metal>  (157) 


>  <PLP.part.nonpolar>  (157) 


>  <PLP.part.repulsive>  (157) 


>  <Version>  (157) 


$$$$
157|Compound_59|Compounds_3D_F|sdf|24|dock9|1
     RDKit          3D

 17 16  0  0  0  0  0  0  0  0999 V2000
   -4.6590  -14.0989   12.1884 O   0  0  0  0  0  0  0  0  0  0  0  0
   -5.6987  -13.2635   12.3330 C   0  0  0  0  0  0  0  0  0  0  0  0
   -5.5247  -12.1514   12.7740 O   0  0  0  0  0  0  0  0  0  0  0  0
   -7.0849  -13.7112   11.9463 C   0  0  0  0  0  0  0  0  0  0  0  0
   -7.1716  -15.2363   12.0323 C   0  0  0  0  0  0  0  0  0  0  0  0
   -8.4829  -15.7089   11.4009 C   0  0  0  0  0  0  0  0  0  0  0  0
   -8.6444  -17.2143   11.6274 C   0  0  0  0  0  0  0  0  0  0  0  0
  -10.0615  -17.6386   11.2400 C   0  0  0  0  0  0  0  0  0  0  0  0
  -10.1751  -19.1627   11.3117 C   0  0  0  0  0  0  0  0  0  0  0  0
  -11.6493  -19.5678   11.2479 C   0  0  0  0  0  0  0  0  0  0  0  0
  -12.1344  -19.5002    9.7974 C   0  0  0  0  0  0  0  0  0  0  0  0
  -13.6093  -19.8991    9.7344 C   0  0  0  0  0  0  0  0  0  0  0  0
  -13.9647  -20.3145    8.3055 C   0  0  0  0  0  0  0  0  0  0  0  0
  -15.2015  -21.0998    8.3180 N   0  0  0  0  0  0  0  0  0  0  0  0
  -15.1739  -22.4058    7.9879 C   0  0  0  0  0  0  0  0  0  0  0  0
  -14.1256  -22.9318    7.6804 O   0  0  0  0  0  0  0  0  0  0  0  0
  -16.4996  -23.2472    8.0008 B   0  0  0  0  0  0  0  0  0  0  0  0
  1  2  1  0
  2  3  2  0
  2  4  1  0
  4  5  1  0
  5  6  1  0
  6  7  1  0
  7  8  1  0
  8  9  1  0
  9 10  1  0
 10 11  1  0
 11 12  1  0
 12 13  1  0
 13 14  1  0
 14 15  1  0
 15 16  2  0
 15 17  1  0
M  END
>  <Gold.Gold.Protein.RotatedWaterAtoms>  (158) 


>  <Gold.Id.Protein>  (158) 


>  <Gold.PLP.Chemscore.CHOScore>  (158) 
0.0000

>  <Gold.PLP.Chemscore.Hbond>  (158) 
1.7771

>  <Gold.PLP.Chemscore.Internal.Correction>  (158) 
0.1386

>  <Gold.PLP.Chemscore.Metal>  (158) 
0.0000

>  <Gold.PLP.Fitness>  (158) 
48.1320

>  <Gold.PLP.PLP>  (158) 
-44.1659

>  <Gold.PLP.ligand.clash>  (158) 
0.0000

>  <Gold.PLP.ligand.torsion>  (158) 
0.7520

>  <Gold.PLP.part.buried>  (158) 
-3.4617

>  <Gold.PLP.part.hbond>  (158) 
-3.6471

>  <Gold.PLP.part.metal>  (158) 
0.0000

>  <Gold.PLP.part.nonpolar>  (158) 
-36.7268

>  <Gold.PLP.part.repulsive>  (158) 
0.5876

>  <Gold.Protein.RotatedAtoms>  (158) 


>  <Gold.Protein.RotatedTorsions>  (158) 


>  <Gold.Protein.RotatedWaterAtoms>  (158) 


>  <Gold.Version>  (158) 
5.3.0

>  <PLP.Chemscore.CHOScore>  (158) 


>  <PLP.Chemscore.Hbond>  (158) 


>  <PLP.Chemscore.Internal.Correction>  (158) 


>  <PLP.Chemscore.Metal>  (158) 


>  <PLP.Fitness>  (158) 


>  <PLP.PLP>  (158) 


>  <PLP.ligand.clash>  (158) 


>  <PLP.ligand.torsion>  (158) 


>  <PLP.part.buried>  (158) 


>  <PLP.part.hbond>  (158) 


>  <PLP.part.metal>  (158) 


>  <PLP.part.nonpolar>  (158) 


>  <PLP.part.repulsive>  (158) 


>  <Version>  (158) 


$$$$
158|Compound_60|Compounds_3D_F|sdf|25|dock1|1
     RDKit          3D

 15 14  0  0  0  0  0  0  0  0999 V2000
   -9.3640  -14.0898   10.7358 O   0  0  0  0  0  0  0  0  0  0  0  0
   -8.4877  -15.0754   10.4865 C   0  0  0  0  0  0  0  0  0  0  0  0
   -8.1119  -15.2786    9.3554 O   0  0  0  0  0  0  0  0  0  0  0  0
   -7.9724  -15.9294   11.6155 C   0  0  0  0  0  0  0  0  0  0  0  0
   -8.3450  -17.3269   11.3819 N   0  0  0  0  0  0  0  0  0  0  0  0
   -9.6114  -17.7316   11.6008 C   0  0  0  0  0  0  0  0  0  0  0  0
  -10.4425  -16.9402   11.9920 O   0  0  0  0  0  0  0  0  0  0  0  0
  -10.0103  -19.2300   11.3504 B   0  0  0  0  0  0  0  0  0  0  0  0
   -6.4480  -15.8131   11.6877 C   0  0  0  0  0  0  0  0  0  0  0  0
   -5.9566  -16.6480   12.7385 O   0  0  0  0  0  0  0  0  0  0  0  0
   -4.7695  -17.3688   12.4021 C   0  0  0  0  0  0  0  0  0  0  0  0
   -4.2464  -18.0958   13.6426 C   0  0  0  0  0  0  0  0  0  0  0  0
   -5.0848  -18.3897   11.3078 C   0  0  0  0  0  0  0  0  0  0  0  0
   -3.7056  -16.3920   11.8977 C   0  0  0  0  0  0  0  0  0  0  0  0
   -6.0598  -14.3598   11.9673 C   0  0  0  0  0  0  0  0  0  0  0  0
  1  2  1  0
  2  3  2  0
  2  4  1  0
  4  5  1  0
  4  9  1  0
  5  6  1  0
  6  7  2  0
  6  8  1  0
  9 10  1  0
  9 15  1  0
 10 11  1  0
 11 12  1  0
 11 13  1  0
 11 14  1  0
M  END
>  <Gold.Gold.Protein.RotatedWaterAtoms>  (159) 


>  <Gold.Id.Protein>  (159) 


>  <Gold.PLP.Chemscore.CHOScore>  (159) 
0.0000

>  <Gold.PLP.Chemscore.Hbond>  (159) 
2.0000

>  <Gold.PLP.Chemscore.Internal.Correction>  (159) 
0.9047

>  <Gold.PLP.Chemscore.Metal>  (159) 
0.0000

>  <Gold.PLP.Fitness>  (159) 
33.6936

>  <Gold.PLP.PLP>  (159) 
-28.4628

>  <Gold.PLP.ligand.clash>  (159) 
0.0000

>  <Gold.PLP.ligand.torsion>  (159) 
0.8369

>  <Gold.PLP.part.buried>  (159) 
-6.2021

>  <Gold.PLP.part.hbond>  (159) 
-2.7799

>  <Gold.PLP.part.metal>  (159) 
0.0000

>  <Gold.PLP.part.nonpolar>  (159) 
-20.6379

>  <Gold.PLP.part.repulsive>  (159) 
0.2959

>  <Gold.Protein.RotatedAtoms>  (159) 


>  <Gold.Protein.RotatedTorsions>  (159) 


>  <Gold.Protein.RotatedWaterAtoms>  (159) 


>  <Gold.Version>  (159) 
5.3.0

>  <PLP.Chemscore.CHOScore>  (159) 


>  <PLP.Chemscore.Hbond>  (159) 


>  <PLP.Chemscore.Internal.Correction>  (159) 


>  <PLP.Chemscore.Metal>  (159) 


>  <PLP.Fitness>  (159) 


>  <PLP.PLP>  (159) 


>  <PLP.ligand.clash>  (159) 


>  <PLP.ligand.torsion>  (159) 


>  <PLP.part.buried>  (159) 


>  <PLP.part.hbond>  (159) 


>  <PLP.part.metal>  (159) 


>  <PLP.part.nonpolar>  (159) 


>  <PLP.part.repulsive>  (159) 


>  <Version>  (159) 


$$$$
159|Compound_60|Compounds_3D_F|sdf|25|dock2|1
     RDKit          3D

 15 14  0  0  0  0  0  0  0  0999 V2000
  -10.0635  -15.6649    8.8763 O   0  0  0  0  0  0  0  0  0  0  0  0
   -9.1183  -16.5777    9.1493 C   0  0  0  0  0  0  0  0  0  0  0  0
   -8.0195  -16.2219    9.5071 O   0  0  0  0  0  0  0  0  0  0  0  0
   -9.4255  -18.0460    9.0098 C   0  0  0  0  0  0  0  0  0  0  0  0
   -8.2219  -18.8281    9.3033 N   0  0  0  0  0  0  0  0  0  0  0  0
   -7.6827  -19.6163    8.3528 C   0  0  0  0  0  0  0  0  0  0  0  0
   -8.1935  -19.6795    7.2550 O   0  0  0  0  0  0  0  0  0  0  0  0
   -6.3925  -20.4546    8.6682 B   0  0  0  0  0  0  0  0  0  0  0  0
  -10.5353  -18.4299    9.9912 C   0  0  0  0  0  0  0  0  0  0  0  0
  -11.7464  -17.7663    9.6228 O   0  0  0  0  0  0  0  0  0  0  0  0
  -12.9303  -18.5105    9.9167 C   0  0  0  0  0  0  0  0  0  0  0  0
  -13.1749  -18.5028   11.4270 C   0  0  0  0  0  0  0  0  0  0  0  0
  -14.1240  -17.8736    9.2036 C   0  0  0  0  0  0  0  0  0  0  0  0
  -12.7585  -19.9527    9.4360 C   0  0  0  0  0  0  0  0  0  0  0  0
  -10.1334  -18.0091   11.4062 C   0  0  0  0  0  0  0  0  0  0  0  0
  1  2  1  0
  2  3  2  0
  2  4  1  0
  4  5  1  0
  4  9  1  0
  5  6  1  0
  6  7  2  0
  6  8  1  0
  9 10  1  0
  9 15  1  0
 10 11  1  0
 11 12  1  0
 11 13  1  0
 11 14  1  0
M  END
>  <Gold.Gold.Protein.RotatedWaterAtoms>  (160) 


>  <Gold.Id.Protein>  (160) 


>  <Gold.PLP.Chemscore.CHOScore>  (160) 
0.0000

>  <Gold.PLP.Chemscore.Hbond>  (160) 
2.7360

>  <Gold.PLP.Chemscore.Internal.Correction>  (160) 
0.8947

>  <Gold.PLP.Chemscore.Metal>  (160) 
0.0000

>  <Gold.PLP.Fitness>  (160) 
34.4145

>  <Gold.PLP.PLP>  (160) 
-26.5011

>  <Gold.PLP.ligand.clash>  (160) 
0.0000

>  <Gold.PLP.ligand.torsion>  (160) 
0.5946

>  <Gold.PLP.part.buried>  (160) 
-3.3470

>  <Gold.PLP.part.hbond>  (160) 
-4.0000

>  <Gold.PLP.part.metal>  (160) 
0.0000

>  <Gold.PLP.part.nonpolar>  (160) 
-18.8481

>  <Gold.PLP.part.repulsive>  (160) 
0.1051

>  <Gold.Protein.RotatedAtoms>  (160) 


>  <Gold.Protein.RotatedTorsions>  (160) 


>  <Gold.Protein.RotatedWaterAtoms>  (160) 


>  <Gold.Version>  (160) 
5.3.0

>  <PLP.Chemscore.CHOScore>  (160) 


>  <PLP.Chemscore.Hbond>  (160) 


>  <PLP.Chemscore.Internal.Correction>  (160) 


>  <PLP.Chemscore.Metal>  (160) 


>  <PLP.Fitness>  (160) 


>  <PLP.PLP>  (160) 


>  <PLP.ligand.clash>  (160) 


>  <PLP.ligand.torsion>  (160) 


>  <PLP.part.buried>  (160) 


>  <PLP.part.hbond>  (160) 


>  <PLP.part.metal>  (160) 


>  <PLP.part.nonpolar>  (160) 


>  <PLP.part.repulsive>  (160) 


>  <Version>  (160) 


$$$$
160|Compound_60|Compounds_3D_F|sdf|25|dock3|1
     RDKit          3D

 15 14  0  0  0  0  0  0  0  0999 V2000
  -14.7081  -21.5076   13.6610 O   0  0  0  0  0  0  0  0  0  0  0  0
  -13.9829  -21.7189   12.5517 C   0  0  0  0  0  0  0  0  0  0  0  0
  -13.6105  -22.8357   12.2763 O   0  0  0  0  0  0  0  0  0  0  0  0
  -13.6319  -20.5647   11.6493 C   0  0  0  0  0  0  0  0  0  0  0  0
  -12.1750  -20.4394   11.5587 N   0  0  0  0  0  0  0  0  0  0  0  0
  -11.5689  -19.3111   11.9774 C   0  0  0  0  0  0  0  0  0  0  0  0
  -12.2286  -18.3991   12.4281 O   0  0  0  0  0  0  0  0  0  0  0  0
  -10.0071  -19.1773   11.8800 B   0  0  0  0  0  0  0  0  0  0  0  0
  -14.2101  -20.8142   10.2544 C   0  0  0  0  0  0  0  0  0  0  0  0
  -13.3786  -21.7420    9.5540 O   0  0  0  0  0  0  0  0  0  0  0  0
  -14.0933  -22.6225    8.6845 C   0  0  0  0  0  0  0  0  0  0  0  0
  -14.8707  -21.8007    7.6543 C   0  0  0  0  0  0  0  0  0  0  0  0
  -13.1055  -23.5410    7.9637 C   0  0  0  0  0  0  0  0  0  0  0  0
  -15.0704  -23.4668    9.5047 C   0  0  0  0  0  0  0  0  0  0  0  0
  -14.2657  -19.4949    9.4815 C   0  0  0  0  0  0  0  0  0  0  0  0
  1  2  1  0
  2  3  2  0
  2  4  1  0
  4  5  1  0
  4  9  1  0
  5  6  1  0
  6  7  2  0
  6  8  1  0
  9 10  1  0
  9 15  1  0
 10 11  1  0
 11 12  1  0
 11 13  1  0
 11 14  1  0
M  END
>  <Gold.Gold.Protein.RotatedWaterAtoms>  (161) 


>  <Gold.Id.Protein>  (161) 


>  <Gold.PLP.Chemscore.CHOScore>  (161) 
0.0000

>  <Gold.PLP.Chemscore.Hbond>  (161) 
3.0000

>  <Gold.PLP.Chemscore.Internal.Correction>  (161) 
0.8833

>  <Gold.PLP.Chemscore.Metal>  (161) 
0.0000

>  <Gold.PLP.Fitness>  (161) 
37.1665

>  <Gold.PLP.PLP>  (161) 
-28.8569

>  <Gold.PLP.ligand.clash>  (161) 
0.0000

>  <Gold.PLP.ligand.torsion>  (161) 
0.7868

>  <Gold.PLP.part.buried>  (161) 
-4.3335

>  <Gold.PLP.part.hbond>  (161) 
-3.3660

>  <Gold.PLP.part.metal>  (161) 
0.0000

>  <Gold.PLP.part.nonpolar>  (161) 
-22.6413

>  <Gold.PLP.part.repulsive>  (161) 
0.1060

>  <Gold.Protein.RotatedAtoms>  (161) 


>  <Gold.Protein.RotatedTorsions>  (161) 


>  <Gold.Protein.RotatedWaterAtoms>  (161) 


>  <Gold.Version>  (161) 
5.3.0

>  <PLP.Chemscore.CHOScore>  (161) 


>  <PLP.Chemscore.Hbond>  (161) 


>  <PLP.Chemscore.Internal.Correction>  (161) 


>  <PLP.Chemscore.Metal>  (161) 


>  <PLP.Fitness>  (161) 


>  <PLP.PLP>  (161) 


>  <PLP.ligand.clash>  (161) 


>  <PLP.ligand.torsion>  (161) 


>  <PLP.part.buried>  (161) 


>  <PLP.part.hbond>  (161) 


>  <PLP.part.metal>  (161) 


>  <PLP.part.nonpolar>  (161) 


>  <PLP.part.repulsive>  (161) 


>  <Version>  (161) 


$$$$
161|Compound_60|Compounds_3D_F|sdf|25|dock4|1
     RDKit          3D

 15 14  0  0  0  0  0  0  0  0999 V2000
  -14.5485  -21.1584   14.9569 O   0  0  0  0  0  0  0  0  0  0  0  0
  -13.8979  -21.3983   13.8078 C   0  0  0  0  0  0  0  0  0  0  0  0
  -14.2861  -22.2683   13.0633 O   0  0  0  0  0  0  0  0  0  0  0  0
  -12.6833  -20.5841   13.4451 C   0  0  0  0  0  0  0  0  0  0  0  0
  -11.5237  -21.4690   13.3080 N   0  0  0  0  0  0  0  0  0  0  0  0
  -10.9864  -22.0486   14.3992 C   0  0  0  0  0  0  0  0  0  0  0  0
  -11.4613  -21.8375   15.4947 O   0  0  0  0  0  0  0  0  0  0  0  0
   -9.7432  -22.9971   14.2517 B   0  0  0  0  0  0  0  0  0  0  0  0
  -12.9322  -19.8603   12.1198 C   0  0  0  0  0  0  0  0  0  0  0  0
  -12.8943  -20.8047   11.0477 O   0  0  0  0  0  0  0  0  0  0  0  0
  -13.6858  -20.4338    9.9172 C   0  0  0  0  0  0  0  0  0  0  0  0
  -13.0069  -19.2797    9.1769 C   0  0  0  0  0  0  0  0  0  0  0  0
  -13.8249  -21.6315    8.9763 C   0  0  0  0  0  0  0  0  0  0  0  0
  -15.0722  -19.9911   10.3886 C   0  0  0  0  0  0  0  0  0  0  0  0
  -11.8486  -18.8016   11.9051 C   0  0  0  0  0  0  0  0  0  0  0  0
  1  2  1  0
  2  3  2  0
  2  4  1  0
  4  5  1  0
  4  9  1  0
  5  6  1  0
  6  7  2  0
  6  8  1  0
  9 10  1  0
  9 15  1  0
 10 11  1  0
 11 12  1  0
 11 13  1  0
 11 14  1  0
M  END
>  <Gold.Gold.Protein.RotatedWaterAtoms>  (162) 


>  <Gold.Id.Protein>  (162) 


>  <Gold.PLP.Chemscore.CHOScore>  (162) 
0.0000

>  <Gold.PLP.Chemscore.Hbond>  (162) 
1.9600

>  <Gold.PLP.Chemscore.Internal.Correction>  (162) 
0.8833

>  <Gold.PLP.Chemscore.Metal>  (162) 
0.0000

>  <Gold.PLP.Fitness>  (162) 
36.0270

>  <Gold.PLP.PLP>  (162) 
-30.6698

>  <Gold.PLP.ligand.clash>  (162) 
0.0000

>  <Gold.PLP.ligand.torsion>  (162) 
0.7031

>  <Gold.PLP.part.buried>  (162) 
-4.4375

>  <Gold.PLP.part.hbond>  (162) 
-3.0000

>  <Gold.PLP.part.metal>  (162) 
0.0000

>  <Gold.PLP.part.nonpolar>  (162) 
-24.3884

>  <Gold.PLP.part.repulsive>  (162) 
0.2390

>  <Gold.Protein.RotatedAtoms>  (162) 


>  <Gold.Protein.RotatedTorsions>  (162) 


>  <Gold.Protein.RotatedWaterAtoms>  (162) 


>  <Gold.Version>  (162) 
5.3.0

>  <PLP.Chemscore.CHOScore>  (162) 


>  <PLP.Chemscore.Hbond>  (162) 


>  <PLP.Chemscore.Internal.Correction>  (162) 


>  <PLP.Chemscore.Metal>  (162) 


>  <PLP.Fitness>  (162) 


>  <PLP.PLP>  (162) 


>  <PLP.ligand.clash>  (162) 


>  <PLP.ligand.torsion>  (162) 


>  <PLP.part.buried>  (162) 


>  <PLP.part.hbond>  (162) 


>  <PLP.part.metal>  (162) 


>  <PLP.part.nonpolar>  (162) 


>  <PLP.part.repulsive>  (162) 


>  <Version>  (162) 


$$$$
162|Compound_60|Compounds_3D_F|sdf|25|dock5|1
     RDKit          3D

 15 14  0  0  0  0  0  0  0  0999 V2000
  -10.0637  -15.6581    8.9057 O   0  0  0  0  0  0  0  0  0  0  0  0
   -9.1224  -16.5786    9.1667 C   0  0  0  0  0  0  0  0  0  0  0  0
   -8.0073  -16.2313    9.4796 O   0  0  0  0  0  0  0  0  0  0  0  0
   -9.4545  -18.0449    9.0694 C   0  0  0  0  0  0  0  0  0  0  0  0
   -8.2609  -18.8384    9.3731 N   0  0  0  0  0  0  0  0  0  0  0  0
   -7.7252  -19.6369    8.4293 C   0  0  0  0  0  0  0  0  0  0  0  0
   -8.2309  -19.7000    7.3291 O   0  0  0  0  0  0  0  0  0  0  0  0
   -6.4458  -20.4875    8.7555 B   0  0  0  0  0  0  0  0  0  0  0  0
  -10.5611  -18.3843   10.0706 C   0  0  0  0  0  0  0  0  0  0  0  0
  -11.7722  -17.7339    9.6794 O   0  0  0  0  0  0  0  0  0  0  0  0
  -12.9525  -18.4961    9.9402 C   0  0  0  0  0  0  0  0  0  0  0  0
  -12.7488  -19.9326    9.4545 C   0  0  0  0  0  0  0  0  0  0  0  0
  -13.2351  -18.5013   11.4433 C   0  0  0  0  0  0  0  0  0  0  0  0
  -14.1367  -17.8713    9.2002 C   0  0  0  0  0  0  0  0  0  0  0  0
  -10.1524  -17.9050   11.4649 C   0  0  0  0  0  0  0  0  0  0  0  0
  1  2  1  0
  2  3  2  0
  2  4  1  0
  4  5  1  0
  4  9  1  0
  5  6  1  0
  6  7  2  0
  6  8  1  0
  9 10  1  0
  9 15  1  0
 10 11  1  0
 11 12  1  0
 11 13  1  0
 11 14  1  0
M  END
>  <Gold.Gold.Protein.RotatedWaterAtoms>  (163) 


>  <Gold.Id.Protein>  (163) 


>  <Gold.PLP.Chemscore.CHOScore>  (163) 
0.0000

>  <Gold.PLP.Chemscore.Hbond>  (163) 
3.0000

>  <Gold.PLP.Chemscore.Internal.Correction>  (163) 
0.8833

>  <Gold.PLP.Chemscore.Metal>  (163) 
0.0000

>  <Gold.PLP.Fitness>  (163) 
35.3140

>  <Gold.PLP.PLP>  (163) 
-26.7829

>  <Gold.PLP.ligand.clash>  (163) 
0.0000

>  <Gold.PLP.ligand.torsion>  (163) 
0.6761

>  <Gold.PLP.part.buried>  (163) 
-3.0459

>  <Gold.PLP.part.hbond>  (163) 
-4.0000

>  <Gold.PLP.part.metal>  (163) 
0.0000

>  <Gold.PLP.part.nonpolar>  (163) 
-19.0179

>  <Gold.PLP.part.repulsive>  (163) 
0.1032

>  <Gold.Protein.RotatedAtoms>  (163) 


>  <Gold.Protein.RotatedTorsions>  (163) 


>  <Gold.Protein.RotatedWaterAtoms>  (163) 


>  <Gold.Version>  (163) 
5.3.0

>  <PLP.Chemscore.CHOScore>  (163) 


>  <PLP.Chemscore.Hbond>  (163) 


>  <PLP.Chemscore.Internal.Correction>  (163) 


>  <PLP.Chemscore.Metal>  (163) 


>  <PLP.Fitness>  (163) 


>  <PLP.PLP>  (163) 


>  <PLP.ligand.clash>  (163) 


>  <PLP.ligand.torsion>  (163) 


>  <PLP.part.buried>  (163) 


>  <PLP.part.hbond>  (163) 


>  <PLP.part.metal>  (163) 


>  <PLP.part.nonpolar>  (163) 


>  <PLP.part.repulsive>  (163) 


>  <Version>  (163) 


$$$$
163|Compound_60|Compounds_3D_F|sdf|25|dock6|1
     RDKit          3D

 15 14  0  0  0  0  0  0  0  0999 V2000
  -10.1663  -15.5677    8.8041 O   0  0  0  0  0  0  0  0  0  0  0  0
   -9.1715  -16.4365    9.0427 C   0  0  0  0  0  0  0  0  0  0  0  0
   -8.0767  -16.0307    9.3570 O   0  0  0  0  0  0  0  0  0  0  0  0
   -9.4181  -17.9175    8.9187 C   0  0  0  0  0  0  0  0  0  0  0  0
   -8.1783  -18.6456    9.2002 N   0  0  0  0  0  0  0  0  0  0  0  0
   -7.6388  -19.4454    8.2596 C   0  0  0  0  0  0  0  0  0  0  0  0
   -8.1792  -19.5636    7.1807 O   0  0  0  0  0  0  0  0  0  0  0  0
   -6.3097  -20.2257    8.5620 B   0  0  0  0  0  0  0  0  0  0  0  0
  -10.4964  -18.3401    9.9192 C   0  0  0  0  0  0  0  0  0  0  0  0
  -11.7352  -17.7160    9.5751 O   0  0  0  0  0  0  0  0  0  0  0  0
  -12.8885  -18.4988    9.8902 C   0  0  0  0  0  0  0  0  0  0  0  0
  -12.6796  -19.9332    9.4005 C   0  0  0  0  0  0  0  0  0  0  0  0
  -13.1044  -18.5032   11.4043 C   0  0  0  0  0  0  0  0  0  0  0  0
  -14.1156  -17.8990    9.2011 C   0  0  0  0  0  0  0  0  0  0  0  0
  -10.0824  -17.9096   11.3278 C   0  0  0  0  0  0  0  0  0  0  0  0
  1  2  1  0
  2  3  2  0
  2  4  1  0
  4  5  1  0
  4  9  1  0
  5  6  1  0
  6  7  2  0
  6  8  1  0
  9 10  1  0
  9 15  1  0
 10 11  1  0
 11 12  1  0
 11 13  1  0
 11 14  1  0
M  END
>  <Gold.Gold.Protein.RotatedWaterAtoms>  (164) 


>  <Gold.Id.Protein>  (164) 


>  <Gold.PLP.Chemscore.CHOScore>  (164) 
0.0000

>  <Gold.PLP.Chemscore.Hbond>  (164) 
2.7680

>  <Gold.PLP.Chemscore.Internal.Correction>  (164) 
0.8833

>  <Gold.PLP.Chemscore.Metal>  (164) 
0.0000

>  <Gold.PLP.Fitness>  (164) 
34.4023

>  <Gold.PLP.PLP>  (164) 
-26.3529

>  <Gold.PLP.ligand.clash>  (164) 
0.0000

>  <Gold.PLP.ligand.torsion>  (164) 
0.5690

>  <Gold.PLP.part.buried>  (164) 
-2.7009

>  <Gold.PLP.part.hbond>  (164) 
-4.0000

>  <Gold.PLP.part.metal>  (164) 
0.0000

>  <Gold.PLP.part.nonpolar>  (164) 
-18.7347

>  <Gold.PLP.part.repulsive>  (164) 
0.1213

>  <Gold.Protein.RotatedAtoms>  (164) 


>  <Gold.Protein.RotatedTorsions>  (164) 


>  <Gold.Protein.RotatedWaterAtoms>  (164) 


>  <Gold.Version>  (164) 
5.3.0

>  <PLP.Chemscore.CHOScore>  (164) 


>  <PLP.Chemscore.Hbond>  (164) 


>  <PLP.Chemscore.Internal.Correction>  (164) 


>  <PLP.Chemscore.Metal>  (164) 


>  <PLP.Fitness>  (164) 


>  <PLP.PLP>  (164) 


>  <PLP.ligand.clash>  (164) 


>  <PLP.ligand.torsion>  (164) 


>  <PLP.part.buried>  (164) 


>  <PLP.part.hbond>  (164) 


>  <PLP.part.metal>  (164) 


>  <PLP.part.nonpolar>  (164) 


>  <PLP.part.repulsive>  (164) 


>  <Version>  (164) 


$$$$
164|Compound_60|Compounds_3D_F|sdf|25|dock7|1
     RDKit          3D

 15 14  0  0  0  0  0  0  0  0999 V2000
   -9.9320  -15.2773    8.5870 O   0  0  0  0  0  0  0  0  0  0  0  0
   -8.8317  -15.8129    9.1382 C   0  0  0  0  0  0  0  0  0  0  0  0
   -7.8700  -16.0618    8.4489 O   0  0  0  0  0  0  0  0  0  0  0  0
   -8.7945  -16.1050   10.6157 C   0  0  0  0  0  0  0  0  0  0  0  0
   -8.7226  -17.5529   10.8269 N   0  0  0  0  0  0  0  0  0  0  0  0
   -9.7683  -18.2070   11.3693 C   0  0  0  0  0  0  0  0  0  0  0  0
  -10.7684  -17.5978   11.6836 O   0  0  0  0  0  0  0  0  0  0  0  0
   -9.6906  -19.7593   11.5956 B   0  0  0  0  0  0  0  0  0  0  0  0
   -7.5652  -15.4372   11.2363 C   0  0  0  0  0  0  0  0  0  0  0  0
   -7.5268  -14.0610   10.8523 O   0  0  0  0  0  0  0  0  0  0  0  0
   -7.6328  -13.1483   11.9467 C   0  0  0  0  0  0  0  0  0  0  0  0
   -7.7999  -11.7257   11.4091 C   0  0  0  0  0  0  0  0  0  0  0  0
   -8.8460  -13.5159   12.8023 C   0  0  0  0  0  0  0  0  0  0  0  0
   -6.3648  -13.2250   12.7991 C   0  0  0  0  0  0  0  0  0  0  0  0
   -6.2989  -16.1398   10.7425 C   0  0  0  0  0  0  0  0  0  0  0  0
  1  2  1  0
  2  3  2  0
  2  4  1  0
  4  5  1  0
  4  9  1  0
  5  6  1  0
  6  7  2  0
  6  8  1  0
  9 10  1  0
  9 15  1  0
 10 11  1  0
 11 12  1  0
 11 13  1  0
 11 14  1  0
M  END
>  <Gold.Gold.Protein.RotatedWaterAtoms>  (165) 


>  <Gold.Id.Protein>  (165) 


>  <Gold.PLP.Chemscore.CHOScore>  (165) 
0.0000

>  <Gold.PLP.Chemscore.Hbond>  (165) 
1.0000

>  <Gold.PLP.Chemscore.Internal.Correction>  (165) 
0.8833

>  <Gold.PLP.Chemscore.Metal>  (165) 
0.0000

>  <Gold.PLP.Fitness>  (165) 
32.7702

>  <Gold.PLP.PLP>  (165) 
-30.9437

>  <Gold.PLP.ligand.clash>  (165) 
0.0000

>  <Gold.PLP.ligand.torsion>  (165) 
1.0284

>  <Gold.PLP.part.buried>  (165) 
-3.4609

>  <Gold.PLP.part.hbond>  (165) 
-2.0068

>  <Gold.PLP.part.metal>  (165) 
0.0000

>  <Gold.PLP.part.nonpolar>  (165) 
-25.0244

>  <Gold.PLP.part.repulsive>  (165) 
0.2446

>  <Gold.Protein.RotatedAtoms>  (165) 


>  <Gold.Protein.RotatedTorsions>  (165) 


>  <Gold.Protein.RotatedWaterAtoms>  (165) 


>  <Gold.Version>  (165) 
5.3.0

>  <PLP.Chemscore.CHOScore>  (165) 


>  <PLP.Chemscore.Hbond>  (165) 


>  <PLP.Chemscore.Internal.Correction>  (165) 


>  <PLP.Chemscore.Metal>  (165) 


>  <PLP.Fitness>  (165) 


>  <PLP.PLP>  (165) 


>  <PLP.ligand.clash>  (165) 


>  <PLP.ligand.torsion>  (165) 


>  <PLP.part.buried>  (165) 


>  <PLP.part.hbond>  (165) 


>  <PLP.part.metal>  (165) 


>  <PLP.part.nonpolar>  (165) 


>  <PLP.part.repulsive>  (165) 


>  <Version>  (165) 


$$$$
165|Compound_60|Compounds_3D_F|sdf|25|dock8|1
     RDKit          3D

 15 14  0  0  0  0  0  0  0  0999 V2000
  -10.0094  -15.5139    8.7594 O   0  0  0  0  0  0  0  0  0  0  0  0
   -9.0007  -16.3858    8.9135 C   0  0  0  0  0  0  0  0  0  0  0  0
   -7.8671  -15.9835    9.0355 O   0  0  0  0  0  0  0  0  0  0  0  0
   -9.2802  -17.8660    8.9340 C   0  0  0  0  0  0  0  0  0  0  0  0
   -8.0274  -18.5981    9.1359 N   0  0  0  0  0  0  0  0  0  0  0  0
   -7.5850  -19.4495    8.1898 C   0  0  0  0  0  0  0  0  0  0  0  0
   -8.2237  -19.6108    7.1719 O   0  0  0  0  0  0  0  0  0  0  0  0
   -6.2419  -20.2341    8.4069 B   0  0  0  0  0  0  0  0  0  0  0  0
  -10.2479  -18.1862   10.0757 C   0  0  0  0  0  0  0  0  0  0  0  0
  -11.5274  -17.6181    9.7879 O   0  0  0  0  0  0  0  0  0  0  0  0
  -12.6247  -18.4983   10.0396 C   0  0  0  0  0  0  0  0  0  0  0  0
  -13.8935  -17.9246    9.4055 C   0  0  0  0  0  0  0  0  0  0  0  0
  -12.3276  -19.8708    9.4338 C   0  0  0  0  0  0  0  0  0  0  0  0
  -12.8290  -18.6397   11.5491 C   0  0  0  0  0  0  0  0  0  0  0  0
   -9.7100  -17.5964   11.3810 C   0  0  0  0  0  0  0  0  0  0  0  0
  1  2  1  0
  2  3  2  0
  2  4  1  0
  4  5  1  0
  4  9  1  0
  5  6  1  0
  6  7  2  0
  6  8  1  0
  9 10  1  0
  9 15  1  0
 10 11  1  0
 11 12  1  0
 11 13  1  0
 11 14  1  0
M  END
>  <Gold.Gold.Protein.RotatedWaterAtoms>  (166) 


>  <Gold.Id.Protein>  (166) 


>  <Gold.PLP.Chemscore.CHOScore>  (166) 
0.0000

>  <Gold.PLP.Chemscore.Hbond>  (166) 
3.0000

>  <Gold.PLP.Chemscore.Internal.Correction>  (166) 
0.8833

>  <Gold.PLP.Chemscore.Metal>  (166) 
0.0000

>  <Gold.PLP.Fitness>  (166) 
34.6442

>  <Gold.PLP.PLP>  (166) 
-26.4213

>  <Gold.PLP.ligand.clash>  (166) 
0.0000

>  <Gold.PLP.ligand.torsion>  (166) 
0.8302

>  <Gold.PLP.part.buried>  (166) 
-3.6820

>  <Gold.PLP.part.hbond>  (166) 
-3.9078

>  <Gold.PLP.part.metal>  (166) 
0.0000

>  <Gold.PLP.part.nonpolar>  (166) 
-18.8321

>  <Gold.PLP.part.repulsive>  (166) 
0.1288

>  <Gold.Protein.RotatedAtoms>  (166) 


>  <Gold.Protein.RotatedTorsions>  (166) 


>  <Gold.Protein.RotatedWaterAtoms>  (166) 


>  <Gold.Version>  (166) 
5.3.0

>  <PLP.Chemscore.CHOScore>  (166) 


>  <PLP.Chemscore.Hbond>  (166) 


>  <PLP.Chemscore.Internal.Correction>  (166) 


>  <PLP.Chemscore.Metal>  (166) 


>  <PLP.Fitness>  (166) 


>  <PLP.PLP>  (166) 


>  <PLP.ligand.clash>  (166) 


>  <PLP.ligand.torsion>  (166) 


>  <PLP.part.buried>  (166) 


>  <PLP.part.hbond>  (166) 


>  <PLP.part.metal>  (166) 


>  <PLP.part.nonpolar>  (166) 


>  <PLP.part.repulsive>  (166) 


>  <Version>  (166) 


$$$$
166|Compound_60|Compounds_3D_F|sdf|25|dock9|1
     RDKit          3D

 15 14  0  0  0  0  0  0  0  0999 V2000
   -9.1191  -14.8841    9.8080 O   0  0  0  0  0  0  0  0  0  0  0  0
   -9.1559  -14.8005   11.1471 C   0  0  0  0  0  0  0  0  0  0  0  0
   -9.7529  -13.8942   11.6801 O   0  0  0  0  0  0  0  0  0  0  0  0
   -8.4530  -15.8353   11.9866 C   0  0  0  0  0  0  0  0  0  0  0  0
   -8.8826  -17.1741   11.5747 N   0  0  0  0  0  0  0  0  0  0  0  0
  -10.1239  -17.6046   11.8738 C   0  0  0  0  0  0  0  0  0  0  0  0
  -10.8851  -16.8851   12.4845 O   0  0  0  0  0  0  0  0  0  0  0  0
  -10.5838  -19.0399   11.4321 B   0  0  0  0  0  0  0  0  0  0  0  0
   -6.9401  -15.7040   11.7964 C   0  0  0  0  0  0  0  0  0  0  0  0
   -6.2665  -16.3949   12.8507 O   0  0  0  0  0  0  0  0  0  0  0  0
   -5.0952  -17.0976   12.4307 C   0  0  0  0  0  0  0  0  0  0  0  0
   -4.0736  -16.1009   11.8794 C   0  0  0  0  0  0  0  0  0  0  0  0
   -4.4906  -17.8407   13.6229 C   0  0  0  0  0  0  0  0  0  0  0  0
   -5.4675  -18.1020   11.3385 C   0  0  0  0  0  0  0  0  0  0  0  0
   -6.5487  -14.2251   11.8243 C   0  0  0  0  0  0  0  0  0  0  0  0
  1  2  1  0
  2  3  2  0
  2  4  1  0
  4  5  1  0
  4  9  1  0
  5  6  1  0
  6  7  2  0
  6  8  1  0
  9 10  1  0
  9 15  1  0
 10 11  1  0
 11 12  1  0
 11 13  1  0
 11 14  1  0
M  END
>  <Gold.Gold.Protein.RotatedWaterAtoms>  (167) 


>  <Gold.Id.Protein>  (167) 


>  <Gold.PLP.Chemscore.CHOScore>  (167) 
0.0000

>  <Gold.PLP.Chemscore.Hbond>  (167) 
2.9357

>  <Gold.PLP.Chemscore.Internal.Correction>  (167) 
0.8833

>  <Gold.PLP.Chemscore.Metal>  (167) 
0.0000

>  <Gold.PLP.Fitness>  (167) 
37.3448

>  <Gold.PLP.PLP>  (167) 
-29.7577

>  <Gold.PLP.ligand.clash>  (167) 
0.0000

>  <Gold.PLP.ligand.torsion>  (167) 
1.0517

>  <Gold.PLP.part.buried>  (167) 
-0.7159

>  <Gold.PLP.part.hbond>  (167) 
-5.1688

>  <Gold.PLP.part.metal>  (167) 
0.0000

>  <Gold.PLP.part.nonpolar>  (167) 
-23.7662

>  <Gold.PLP.part.repulsive>  (167) 
0.3324

>  <Gold.Protein.RotatedAtoms>  (167) 


>  <Gold.Protein.RotatedTorsions>  (167) 


>  <Gold.Protein.RotatedWaterAtoms>  (167) 


>  <Gold.Version>  (167) 
5.3.0

>  <PLP.Chemscore.CHOScore>  (167) 


>  <PLP.Chemscore.Hbond>  (167) 


>  <PLP.Chemscore.Internal.Correction>  (167) 


>  <PLP.Chemscore.Metal>  (167) 


>  <PLP.Fitness>  (167) 


>  <PLP.PLP>  (167) 


>  <PLP.ligand.clash>  (167) 


>  <PLP.ligand.torsion>  (167) 


>  <PLP.part.buried>  (167) 


>  <PLP.part.hbond>  (167) 


>  <PLP.part.metal>  (167) 


>  <PLP.part.nonpolar>  (167) 


>  <PLP.part.repulsive>  (167) 


>  <Version>  (167) 


$$$$
167|Compound_61|Compounds_3D_F|sdf|26|dock1|1
     RDKit          3D

 11 10  0  0  0  0  0  0  0  0999 V2000
  -12.6277  -22.1117   10.9639 O   0  0  0  0  0  0  0  0  0  0  0  0
  -14.2271  -22.1536   11.1459 P   0  0  0  0  0  0  0  0  0  0  0  0
  -14.7827  -23.4547   10.5242 O   0  0  0  0  0  0  0  0  0  0  0  0
  -14.5745  -22.1121   12.6504 O   0  0  0  0  0  0  0  0  0  0  0  0
  -15.0927  -20.4810   10.1743 S   0  0  0  0  0  0  0  0  0  0  0  0
  -13.6709  -19.5887    9.4863 C   0  0  0  0  0  0  0  0  0  0  0  0
  -12.9913  -18.7816   10.5939 C   0  0  0  0  0  0  0  0  0  0  0  0
  -11.5437  -19.0022   10.5414 N   0  0  0  0  0  0  0  0  0  0  0  0
  -10.7303  -18.3459   11.3913 C   0  0  0  0  0  0  0  0  0  0  0  0
  -11.1962  -17.5723   12.2001 O   0  0  0  0  0  0  0  0  0  0  0  0
   -9.1799  -18.5827   11.3356 B   0  0  0  0  0  0  0  0  0  0  0  0
  1  2  1  0
  2  3  2  0
  2  4  1  0
  2  5  1  0
  5  6  1  0
  6  7  1  0
  7  8  1  0
  8  9  1  0
  9 10  2  0
  9 11  1  0
M  CHG  1   4  -1
M  END
>  <Gold.Gold.Protein.RotatedWaterAtoms>  (168) 


>  <Gold.Id.Protein>  (168) 


>  <Gold.PLP.Chemscore.CHOScore>  (168) 
0.0000

>  <Gold.PLP.Chemscore.Hbond>  (168) 
6.0000

>  <Gold.PLP.Chemscore.Internal.Correction>  (168) 
0.0012

>  <Gold.PLP.Chemscore.Metal>  (168) 
0.0000

>  <Gold.PLP.Fitness>  (168) 
38.0485

>  <Gold.PLP.PLP>  (168) 
-20.8927

>  <Gold.PLP.ligand.clash>  (168) 
0.0000

>  <Gold.PLP.ligand.torsion>  (168) 
0.4227

>  <Gold.PLP.part.buried>  (168) 
-4.0291

>  <Gold.PLP.part.hbond>  (168) 
-3.9330

>  <Gold.PLP.part.metal>  (168) 
0.0000

>  <Gold.PLP.part.nonpolar>  (168) 
-13.9508

>  <Gold.PLP.part.repulsive>  (168) 
0.1954

>  <Gold.Protein.RotatedAtoms>  (168) 


>  <Gold.Protein.RotatedTorsions>  (168) 


>  <Gold.Protein.RotatedWaterAtoms>  (168) 


>  <Gold.Version>  (168) 
5.3.0

>  <PLP.Chemscore.CHOScore>  (168) 


>  <PLP.Chemscore.Hbond>  (168) 


>  <PLP.Chemscore.Internal.Correction>  (168) 


>  <PLP.Chemscore.Metal>  (168) 


>  <PLP.Fitness>  (168) 


>  <PLP.PLP>  (168) 


>  <PLP.ligand.clash>  (168) 


>  <PLP.ligand.torsion>  (168) 


>  <PLP.part.buried>  (168) 


>  <PLP.part.hbond>  (168) 


>  <PLP.part.metal>  (168) 


>  <PLP.part.nonpolar>  (168) 


>  <PLP.part.repulsive>  (168) 


>  <Version>  (168) 


$$$$
168|Compound_61|Compounds_3D_F|sdf|26|dock2|1
     RDKit          3D

 11 10  0  0  0  0  0  0  0  0999 V2000
  -12.4873  -22.0086   11.1358 O   0  0  0  0  0  0  0  0  0  0  0  0
  -14.0860  -22.1517   11.2651 P   0  0  0  0  0  0  0  0  0  0  0  0
  -14.5319  -23.5070   10.6716 O   0  0  0  0  0  0  0  0  0  0  0  0
  -14.4892  -22.0839   12.7546 O   0  0  0  0  0  0  0  0  0  0  0  0
  -15.0244  -20.5741   10.2063 S   0  0  0  0  0  0  0  0  0  0  0  0
  -13.6407  -19.5886    9.5697 C   0  0  0  0  0  0  0  0  0  0  0  0
  -12.9510  -18.8693   10.7304 C   0  0  0  0  0  0  0  0  0  0  0  0
  -11.5008  -19.0510   10.6253 N   0  0  0  0  0  0  0  0  0  0  0  0
  -10.6730  -18.3386   11.4140 C   0  0  0  0  0  0  0  0  0  0  0  0
  -11.1281  -17.5468   12.2112 O   0  0  0  0  0  0  0  0  0  0  0  0
   -9.1199  -18.5337   11.3019 B   0  0  0  0  0  0  0  0  0  0  0  0
  1  2  1  0
  2  3  2  0
  2  4  1  0
  2  5  1  0
  5  6  1  0
  6  7  1  0
  7  8  1  0
  8  9  1  0
  9 10  2  0
  9 11  1  0
M  CHG  1   4  -1
M  END
>  <Gold.Gold.Protein.RotatedWaterAtoms>  (169) 


>  <Gold.Id.Protein>  (169) 


>  <Gold.PLP.Chemscore.CHOScore>  (169) 
0.0000

>  <Gold.PLP.Chemscore.Hbond>  (169) 
5.9920

>  <Gold.PLP.Chemscore.Internal.Correction>  (169) 
0.0012

>  <Gold.PLP.Chemscore.Metal>  (169) 
0.0000

>  <Gold.PLP.Fitness>  (169) 
37.3907

>  <Gold.PLP.PLP>  (169) 
-20.2463

>  <Gold.PLP.ligand.clash>  (169) 
0.0000

>  <Gold.PLP.ligand.torsion>  (169) 
0.4164

>  <Gold.PLP.part.buried>  (169) 
-4.0677

>  <Gold.PLP.part.hbond>  (169) 
-3.9270

>  <Gold.PLP.part.metal>  (169) 
0.0000

>  <Gold.PLP.part.nonpolar>  (169) 
-13.4005

>  <Gold.PLP.part.repulsive>  (169) 
0.2001

>  <Gold.Protein.RotatedAtoms>  (169) 


>  <Gold.Protein.RotatedTorsions>  (169) 


>  <Gold.Protein.RotatedWaterAtoms>  (169) 


>  <Gold.Version>  (169) 
5.3.0

>  <PLP.Chemscore.CHOScore>  (169) 


>  <PLP.Chemscore.Hbond>  (169) 


>  <PLP.Chemscore.Internal.Correction>  (169) 


>  <PLP.Chemscore.Metal>  (169) 


>  <PLP.Fitness>  (169) 


>  <PLP.PLP>  (169) 


>  <PLP.ligand.clash>  (169) 


>  <PLP.ligand.torsion>  (169) 


>  <PLP.part.buried>  (169) 


>  <PLP.part.hbond>  (169) 


>  <PLP.part.metal>  (169) 


>  <PLP.part.nonpolar>  (169) 


>  <PLP.part.repulsive>  (169) 


>  <Version>  (169) 


$$$$
169|Compound_61|Compounds_3D_F|sdf|26|dock3|1
     RDKit          3D

 11 10  0  0  0  0  0  0  0  0999 V2000
  -14.7379  -22.0003   12.9113 O   0  0  0  0  0  0  0  0  0  0  0  0
  -14.1669  -22.1217   11.4104 P   0  0  0  0  0  0  0  0  0  0  0  0
  -12.6353  -21.9164   11.4234 O   0  0  0  0  0  0  0  0  0  0  0  0
  -14.4942  -23.5225   10.8478 O   0  0  0  0  0  0  0  0  0  0  0  0
  -15.0675  -20.6417   10.1901 S   0  0  0  0  0  0  0  0  0  0  0  0
  -13.9367  -20.4877    8.7800 C   0  0  0  0  0  0  0  0  0  0  0  0
  -14.3209  -21.5063    7.7051 C   0  0  0  0  0  0  0  0  0  0  0  0
  -15.7227  -21.8955    7.8795 N   0  0  0  0  0  0  0  0  0  0  0  0
  -16.0510  -23.1960    8.0037 C   0  0  0  0  0  0  0  0  0  0  0  0
  -15.1862  -24.0450    7.9713 O   0  0  0  0  0  0  0  0  0  0  0  0
  -17.5524  -23.6128    8.1912 B   0  0  0  0  0  0  0  0  0  0  0  0
  1  2  1  0
  2  3  2  0
  2  4  1  0
  2  5  1  0
  5  6  1  0
  6  7  1  0
  7  8  1  0
  8  9  1  0
  9 10  2  0
  9 11  1  0
M  CHG  1   4  -1
M  END
>  <Gold.Gold.Protein.RotatedWaterAtoms>  (170) 


>  <Gold.Id.Protein>  (170) 


>  <Gold.PLP.Chemscore.CHOScore>  (170) 
0.0000

>  <Gold.PLP.Chemscore.Hbond>  (170) 
4.8480

>  <Gold.PLP.Chemscore.Internal.Correction>  (170) 
0.0012

>  <Gold.PLP.Chemscore.Metal>  (170) 
0.0000

>  <Gold.PLP.Fitness>  (170) 
36.8057

>  <Gold.PLP.PLP>  (170) 
-25.4698

>  <Gold.PLP.ligand.clash>  (170) 
1.4697

>  <Gold.PLP.ligand.torsion>  (170) 
0.8698

>  <Gold.PLP.part.buried>  (170) 
-2.7775

>  <Gold.PLP.part.hbond>  (170) 
-4.0000

>  <Gold.PLP.part.metal>  (170) 
0.0000

>  <Gold.PLP.part.nonpolar>  (170) 
-19.6107

>  <Gold.PLP.part.repulsive>  (170) 
0.2289

>  <Gold.Protein.RotatedAtoms>  (170) 


>  <Gold.Protein.RotatedTorsions>  (170) 


>  <Gold.Protein.RotatedWaterAtoms>  (170) 


>  <Gold.Version>  (170) 
5.3.0

>  <PLP.Chemscore.CHOScore>  (170) 


>  <PLP.Chemscore.Hbond>  (170) 


>  <PLP.Chemscore.Internal.Correction>  (170) 


>  <PLP.Chemscore.Metal>  (170) 


>  <PLP.Fitness>  (170) 


>  <PLP.PLP>  (170) 


>  <PLP.ligand.clash>  (170) 


>  <PLP.ligand.torsion>  (170) 


>  <PLP.part.buried>  (170) 


>  <PLP.part.hbond>  (170) 


>  <PLP.part.metal>  (170) 


>  <PLP.part.nonpolar>  (170) 


>  <PLP.part.repulsive>  (170) 


>  <Version>  (170) 


$$$$
170|Compound_61|Compounds_3D_F|sdf|26|dock4|1
     RDKit          3D

 11 10  0  0  0  0  0  0  0  0999 V2000
  -14.6446  -21.1740   14.9486 O   0  0  0  0  0  0  0  0  0  0  0  0
  -13.6958  -21.5051   13.6903 P   0  0  0  0  0  0  0  0  0  0  0  0
  -12.5113  -22.3822   14.1546 O   0  0  0  0  0  0  0  0  0  0  0  0
  -14.5095  -22.2634   12.6186 O   0  0  0  0  0  0  0  0  0  0  0  0
  -12.9562  -19.6973   12.8682 S   0  0  0  0  0  0  0  0  0  0  0  0
  -13.7153  -19.6206   11.2223 C   0  0  0  0  0  0  0  0  0  0  0  0
  -13.0146  -18.5471   10.3876 C   0  0  0  0  0  0  0  0  0  0  0  0
  -11.5729  -18.8082   10.3664 N   0  0  0  0  0  0  0  0  0  0  0  0
  -10.7789  -18.2854   11.3209 C   0  0  0  0  0  0  0  0  0  0  0  0
  -11.2573  -17.5987   12.1978 O   0  0  0  0  0  0  0  0  0  0  0  0
   -9.2349  -18.5656   11.2986 B   0  0  0  0  0  0  0  0  0  0  0  0
  1  2  1  0
  2  3  2  0
  2  4  1  0
  2  5  1  0
  5  6  1  0
  6  7  1  0
  7  8  1  0
  8  9  1  0
  9 10  2  0
  9 11  1  0
M  CHG  1   4  -1
M  END
>  <Gold.Gold.Protein.RotatedWaterAtoms>  (171) 


>  <Gold.Id.Protein>  (171) 


>  <Gold.PLP.Chemscore.CHOScore>  (171) 
0.0000

>  <Gold.PLP.Chemscore.Hbond>  (171) 
5.0000

>  <Gold.PLP.Chemscore.Internal.Correction>  (171) 
0.0012

>  <Gold.PLP.Chemscore.Metal>  (171) 
0.0000

>  <Gold.PLP.Fitness>  (171) 
35.8884

>  <Gold.PLP.PLP>  (171) 
-21.4749

>  <Gold.PLP.ligand.clash>  (171) 
0.0000

>  <Gold.PLP.ligand.torsion>  (171) 
0.2938

>  <Gold.PLP.part.buried>  (171) 
-3.6435

>  <Gold.PLP.part.hbond>  (171) 
-5.0000

>  <Gold.PLP.part.metal>  (171) 
0.0000

>  <Gold.PLP.part.nonpolar>  (171) 
-13.6804

>  <Gold.PLP.part.repulsive>  (171) 
0.2007

>  <Gold.Protein.RotatedAtoms>  (171) 


>  <Gold.Protein.RotatedTorsions>  (171) 


>  <Gold.Protein.RotatedWaterAtoms>  (171) 


>  <Gold.Version>  (171) 
5.3.0

>  <PLP.Chemscore.CHOScore>  (171) 


>  <PLP.Chemscore.Hbond>  (171) 


>  <PLP.Chemscore.Internal.Correction>  (171) 


>  <PLP.Chemscore.Metal>  (171) 


>  <PLP.Fitness>  (171) 


>  <PLP.PLP>  (171) 


>  <PLP.ligand.clash>  (171) 


>  <PLP.ligand.torsion>  (171) 


>  <PLP.part.buried>  (171) 


>  <PLP.part.hbond>  (171) 


>  <PLP.part.metal>  (171) 


>  <PLP.part.nonpolar>  (171) 


>  <PLP.part.repulsive>  (171) 


>  <Version>  (171) 


$$$$
171|Compound_61|Compounds_3D_F|sdf|26|dock5|1
     RDKit          3D

 11 10  0  0  0  0  0  0  0  0999 V2000
  -13.9007  -21.1146   12.9665 O   0  0  0  0  0  0  0  0  0  0  0  0
  -13.9912  -21.7628   11.4951 P   0  0  0  0  0  0  0  0  0  0  0  0
  -12.5802  -21.8140   10.8668 O   0  0  0  0  0  0  0  0  0  0  0  0
  -14.5615  -23.1945   11.5985 O   0  0  0  0  0  0  0  0  0  0  0  0
  -15.2630  -20.5813   10.2797 S   0  0  0  0  0  0  0  0  0  0  0  0
  -14.2942  -20.3028    8.7713 C   0  0  0  0  0  0  0  0  0  0  0  0
  -14.4634  -21.4963    7.8294 C   0  0  0  0  0  0  0  0  0  0  0  0
  -15.8315  -22.0107    7.9333 N   0  0  0  0  0  0  0  0  0  0  0  0
  -16.0435  -23.3186    8.1764 C   0  0  0  0  0  0  0  0  0  0  0  0
  -15.1019  -24.0705    8.3093 O   0  0  0  0  0  0  0  0  0  0  0  0
  -17.5087  -23.8694    8.2883 B   0  0  0  0  0  0  0  0  0  0  0  0
  1  2  1  0
  2  3  2  0
  2  4  1  0
  2  5  1  0
  5  6  1  0
  6  7  1  0
  7  8  1  0
  8  9  1  0
  9 10  2  0
  9 11  1  0
M  CHG  1   4  -1
M  END
>  <Gold.Gold.Protein.RotatedWaterAtoms>  (172) 


>  <Gold.Id.Protein>  (172) 


>  <Gold.PLP.Chemscore.CHOScore>  (172) 
0.0000

>  <Gold.PLP.Chemscore.Hbond>  (172) 
5.7120

>  <Gold.PLP.Chemscore.Internal.Correction>  (172) 
0.0012

>  <Gold.PLP.Chemscore.Metal>  (172) 
0.0000

>  <Gold.PLP.Fitness>  (172) 
41.1677

>  <Gold.PLP.PLP>  (172) 
-24.8901

>  <Gold.PLP.ligand.clash>  (172) 
0.0000

>  <Gold.PLP.ligand.torsion>  (172) 
0.4298

>  <Gold.PLP.part.buried>  (172) 
-4.1211

>  <Gold.PLP.part.hbond>  (172) 
-4.0000

>  <Gold.PLP.part.metal>  (172) 
0.0000

>  <Gold.PLP.part.nonpolar>  (172) 
-18.7833

>  <Gold.PLP.part.repulsive>  (172) 
0.2284

>  <Gold.Protein.RotatedAtoms>  (172) 


>  <Gold.Protein.RotatedTorsions>  (172) 


>  <Gold.Protein.RotatedWaterAtoms>  (172) 


>  <Gold.Version>  (172) 
5.3.0

>  <PLP.Chemscore.CHOScore>  (172) 


>  <PLP.Chemscore.Hbond>  (172) 


>  <PLP.Chemscore.Internal.Correction>  (172) 


>  <PLP.Chemscore.Metal>  (172) 


>  <PLP.Fitness>  (172) 


>  <PLP.PLP>  (172) 


>  <PLP.ligand.clash>  (172) 


>  <PLP.ligand.torsion>  (172) 


>  <PLP.part.buried>  (172) 


>  <PLP.part.hbond>  (172) 


>  <PLP.part.metal>  (172) 


>  <PLP.part.nonpolar>  (172) 


>  <PLP.part.repulsive>  (172) 


>  <Version>  (172) 


$$$$
172|Compound_61|Compounds_3D_F|sdf|26|dock6|1
     RDKit          3D

 11 10  0  0  0  0  0  0  0  0999 V2000
  -12.6583  -19.9049   12.2388 O   0  0  0  0  0  0  0  0  0  0  0  0
  -11.4879  -19.0103   11.5885 P   0  0  0  0  0  0  0  0  0  0  0  0
  -11.4933  -17.6062   12.2340 O   0  0  0  0  0  0  0  0  0  0  0  0
  -10.1229  -19.6879   11.8403 O   0  0  0  0  0  0  0  0  0  0  0  0
  -11.8131  -18.8296    9.5023 S   0  0  0  0  0  0  0  0  0  0  0  0
  -13.5330  -18.2670    9.3732 C   0  0  0  0  0  0  0  0  0  0  0  0
  -14.4728  -19.4038    9.7791 C   0  0  0  0  0  0  0  0  0  0  0  0
  -14.8092  -20.2047    8.5990 N   0  0  0  0  0  0  0  0  0  0  0  0
  -14.8060  -21.5497    8.6736 C   0  0  0  0  0  0  0  0  0  0  0  0
  -14.5248  -22.0979    9.7176 O   0  0  0  0  0  0  0  0  0  0  0  0
  -15.1669  -22.4074    7.4099 B   0  0  0  0  0  0  0  0  0  0  0  0
  1  2  1  0
  2  3  2  0
  2  4  1  0
  2  5  1  0
  5  6  1  0
  6  7  1  0
  7  8  1  0
  8  9  1  0
  9 10  2  0
  9 11  1  0
M  CHG  1   4  -1
M  END
>  <Gold.Gold.Protein.RotatedWaterAtoms>  (173) 


>  <Gold.Id.Protein>  (173) 


>  <Gold.PLP.Chemscore.CHOScore>  (173) 
0.0000

>  <Gold.PLP.Chemscore.Hbond>  (173) 
3.0000

>  <Gold.PLP.Chemscore.Internal.Correction>  (173) 
0.0012

>  <Gold.PLP.Chemscore.Metal>  (173) 
0.0000

>  <Gold.PLP.Fitness>  (173) 
34.3603

>  <Gold.PLP.PLP>  (173) 
-26.1901

>  <Gold.PLP.ligand.clash>  (173) 
0.0000

>  <Gold.PLP.ligand.torsion>  (173) 
0.4155

>  <Gold.PLP.part.buried>  (173) 
-3.8749

>  <Gold.PLP.part.hbond>  (173) 
-3.4109

>  <Gold.PLP.part.metal>  (173) 
0.0000

>  <Gold.PLP.part.nonpolar>  (173) 
-18.6341

>  <Gold.PLP.part.repulsive>  (173) 
0.2447

>  <Gold.Protein.RotatedAtoms>  (173) 


>  <Gold.Protein.RotatedTorsions>  (173) 


>  <Gold.Protein.RotatedWaterAtoms>  (173) 


>  <Gold.Version>  (173) 
5.3.0

>  <PLP.Chemscore.CHOScore>  (173) 


>  <PLP.Chemscore.Hbond>  (173) 


>  <PLP.Chemscore.Internal.Correction>  (173) 


>  <PLP.Chemscore.Metal>  (173) 


>  <PLP.Fitness>  (173) 


>  <PLP.PLP>  (173) 


>  <PLP.ligand.clash>  (173) 


>  <PLP.ligand.torsion>  (173) 


>  <PLP.part.buried>  (173) 


>  <PLP.part.hbond>  (173) 


>  <PLP.part.metal>  (173) 


>  <PLP.part.nonpolar>  (173) 


>  <PLP.part.repulsive>  (173) 


>  <Version>  (173) 


$$$$
173|Compound_61|Compounds_3D_F|sdf|26|dock7|1
     RDKit          3D

 11 10  0  0  0  0  0  0  0  0999 V2000
  -14.2981  -21.2550   13.2624 O   0  0  0  0  0  0  0  0  0  0  0  0
  -14.0070  -21.7620   11.7619 P   0  0  0  0  0  0  0  0  0  0  0  0
  -12.4863  -21.7217   11.4901 O   0  0  0  0  0  0  0  0  0  0  0  0
  -14.5212  -23.2095   11.5998 O   0  0  0  0  0  0  0  0  0  0  0  0
  -15.0044  -20.4990   10.3834 S   0  0  0  0  0  0  0  0  0  0  0  0
  -13.6612  -19.5965    9.5634 C   0  0  0  0  0  0  0  0  0  0  0  0
  -12.8320  -18.8533   10.6124 C   0  0  0  0  0  0  0  0  0  0  0  0
  -11.5255  -19.5017   10.7519 N   0  0  0  0  0  0  0  0  0  0  0  0
  -10.4008  -18.7602   10.7485 C   0  0  0  0  0  0  0  0  0  0  0  0
  -10.4697  -17.5557   10.6300 O   0  0  0  0  0  0  0  0  0  0  0  0
   -9.0015  -19.4546   10.8985 B   0  0  0  0  0  0  0  0  0  0  0  0
  1  2  1  0
  2  3  2  0
  2  4  1  0
  2  5  1  0
  5  6  1  0
  6  7  1  0
  7  8  1  0
  8  9  1  0
  9 10  2  0
  9 11  1  0
M  CHG  1   4  -1
M  END
>  <Gold.Gold.Protein.RotatedWaterAtoms>  (174) 


>  <Gold.Id.Protein>  (174) 


>  <Gold.PLP.Chemscore.CHOScore>  (174) 
0.0000

>  <Gold.PLP.Chemscore.Hbond>  (174) 
5.7278

>  <Gold.PLP.Chemscore.Internal.Correction>  (174) 
0.0012

>  <Gold.PLP.Chemscore.Metal>  (174) 
0.0000

>  <Gold.PLP.Fitness>  (174) 
35.4722

>  <Gold.PLP.PLP>  (174) 
-19.3773

>  <Gold.PLP.ligand.clash>  (174) 
0.0000

>  <Gold.PLP.ligand.torsion>  (174) 
0.5448

>  <Gold.PLP.part.buried>  (174) 
-3.5408

>  <Gold.PLP.part.hbond>  (174) 
-4.0000

>  <Gold.PLP.part.metal>  (174) 
0.0000

>  <Gold.PLP.part.nonpolar>  (174) 
-13.2175

>  <Gold.PLP.part.repulsive>  (174) 
0.0546

>  <Gold.Protein.RotatedAtoms>  (174) 


>  <Gold.Protein.RotatedTorsions>  (174) 


>  <Gold.Protein.RotatedWaterAtoms>  (174) 


>  <Gold.Version>  (174) 
5.3.0

>  <PLP.Chemscore.CHOScore>  (174) 


>  <PLP.Chemscore.Hbond>  (174) 


>  <PLP.Chemscore.Internal.Correction>  (174) 


>  <PLP.Chemscore.Metal>  (174) 


>  <PLP.Fitness>  (174) 


>  <PLP.PLP>  (174) 


>  <PLP.ligand.clash>  (174) 


>  <PLP.ligand.torsion>  (174) 


>  <PLP.part.buried>  (174) 


>  <PLP.part.hbond>  (174) 


>  <PLP.part.metal>  (174) 


>  <PLP.part.nonpolar>  (174) 


>  <PLP.part.repulsive>  (174) 


>  <Version>  (174) 


$$$$
174|Compound_61|Compounds_3D_F|sdf|26|dock8|1
     RDKit          3D

 11 10  0  0  0  0  0  0  0  0999 V2000
  -14.8026  -22.0497   12.7613 O   0  0  0  0  0  0  0  0  0  0  0  0
  -14.3104  -22.0989   11.2288 P   0  0  0  0  0  0  0  0  0  0  0  0
  -12.7673  -22.0316   11.1806 O   0  0  0  0  0  0  0  0  0  0  0  0
  -14.7894  -23.4149   10.5772 O   0  0  0  0  0  0  0  0  0  0  0  0
  -15.1224  -20.4509   10.1727 S   0  0  0  0  0  0  0  0  0  0  0  0
  -14.1688  -20.4050    8.6302 C   0  0  0  0  0  0  0  0  0  0  0  0
  -14.5231  -21.6234    7.7756 C   0  0  0  0  0  0  0  0  0  0  0  0
  -15.9162  -22.0048    8.0222 N   0  0  0  0  0  0  0  0  0  0  0  0
  -16.2685  -23.3051    8.0272 C   0  0  0  0  0  0  0  0  0  0  0  0
  -15.4325  -24.1600    7.8277 O   0  0  0  0  0  0  0  0  0  0  0  0
  -17.7604  -23.7137    8.2921 B   0  0  0  0  0  0  0  0  0  0  0  0
  1  2  1  0
  2  3  2  0
  2  4  1  0
  2  5  1  0
  5  6  1  0
  6  7  1  0
  7  8  1  0
  8  9  1  0
  9 10  2  0
  9 11  1  0
M  CHG  1   4  -1
M  END
>  <Gold.Gold.Protein.RotatedWaterAtoms>  (175) 


>  <Gold.Id.Protein>  (175) 


>  <Gold.PLP.Chemscore.CHOScore>  (175) 
0.0000

>  <Gold.PLP.Chemscore.Hbond>  (175) 
4.8640

>  <Gold.PLP.Chemscore.Internal.Correction>  (175) 
0.0012

>  <Gold.PLP.Chemscore.Metal>  (175) 
0.0000

>  <Gold.PLP.Fitness>  (175) 
39.8483

>  <Gold.PLP.PLP>  (175) 
-26.4705

>  <Gold.PLP.ligand.clash>  (175) 
0.0000

>  <Gold.PLP.ligand.torsion>  (175) 
0.6077

>  <Gold.PLP.part.buried>  (175) 
-3.2400

>  <Gold.PLP.part.hbond>  (175) 
-3.9976

>  <Gold.PLP.part.metal>  (175) 
0.0000

>  <Gold.PLP.part.nonpolar>  (175) 
-19.8737

>  <Gold.PLP.part.repulsive>  (175) 
0.2082

>  <Gold.Protein.RotatedAtoms>  (175) 


>  <Gold.Protein.RotatedTorsions>  (175) 


>  <Gold.Protein.RotatedWaterAtoms>  (175) 


>  <Gold.Version>  (175) 
5.3.0

>  <PLP.Chemscore.CHOScore>  (175) 


>  <PLP.Chemscore.Hbond>  (175) 


>  <PLP.Chemscore.Internal.Correction>  (175) 


>  <PLP.Chemscore.Metal>  (175) 


>  <PLP.Fitness>  (175) 


>  <PLP.PLP>  (175) 


>  <PLP.ligand.clash>  (175) 


>  <PLP.ligand.torsion>  (175) 


>  <PLP.part.buried>  (175) 


>  <PLP.part.hbond>  (175) 


>  <PLP.part.metal>  (175) 


>  <PLP.part.nonpolar>  (175) 


>  <PLP.part.repulsive>  (175) 


>  <Version>  (175) 


$$$$
175|Compound_61|Compounds_3D_F|sdf|26|dock9|1
     RDKit          3D

 11 10  0  0  0  0  0  0  0  0999 V2000
  -12.6521  -22.5598   10.9396 O   0  0  0  0  0  0  0  0  0  0  0  0
  -14.2473  -22.3587   11.0280 P   0  0  0  0  0  0  0  0  0  0  0  0
  -14.9559  -23.5576   10.3581 O   0  0  0  0  0  0  0  0  0  0  0  0
  -14.6729  -22.2712   12.5102 O   0  0  0  0  0  0  0  0  0  0  0  0
  -14.7903  -20.5700   10.0299 S   0  0  0  0  0  0  0  0  0  0  0  0
  -13.2052  -19.8646    9.4997 C   0  0  0  0  0  0  0  0  0  0  0  0
  -12.6938  -18.8987   10.5701 C   0  0  0  0  0  0  0  0  0  0  0  0
  -11.2354  -18.7922   10.4756 N   0  0  0  0  0  0  0  0  0  0  0  0
  -10.5531  -18.0590   11.3765 C   0  0  0  0  0  0  0  0  0  0  0  0
  -11.1459  -17.4870   12.2659 O   0  0  0  0  0  0  0  0  0  0  0  0
   -8.9911  -17.9454   11.2757 B   0  0  0  0  0  0  0  0  0  0  0  0
  1  2  1  0
  2  3  2  0
  2  4  1  0
  2  5  1  0
  5  6  1  0
  6  7  1  0
  7  8  1  0
  8  9  1  0
  9 10  2  0
  9 11  1  0
M  CHG  1   4  -1
M  END
>  <Gold.Gold.Protein.RotatedWaterAtoms>  (176) 


>  <Gold.Id.Protein>  (176) 


>  <Gold.PLP.Chemscore.CHOScore>  (176) 
0.0000

>  <Gold.PLP.Chemscore.Hbond>  (176) 
6.0000

>  <Gold.PLP.Chemscore.Internal.Correction>  (176) 
0.0012

>  <Gold.PLP.Chemscore.Metal>  (176) 
0.0000

>  <Gold.PLP.Fitness>  (176) 
36.6950

>  <Gold.PLP.PLP>  (176) 
-19.4304

>  <Gold.PLP.ligand.clash>  (176) 
0.0000

>  <Gold.PLP.ligand.torsion>  (176) 
0.3683

>  <Gold.PLP.part.buried>  (176) 
-2.5113

>  <Gold.PLP.part.hbond>  (176) 
-4.0000

>  <Gold.PLP.part.metal>  (176) 
0.0000

>  <Gold.PLP.part.nonpolar>  (176) 
-13.2197

>  <Gold.PLP.part.repulsive>  (176) 
0.1970

>  <Gold.Protein.RotatedAtoms>  (176) 


>  <Gold.Protein.RotatedTorsions>  (176) 


>  <Gold.Protein.RotatedWaterAtoms>  (176) 


>  <Gold.Version>  (176) 
5.3.0

>  <PLP.Chemscore.CHOScore>  (176) 


>  <PLP.Chemscore.Hbond>  (176) 


>  <PLP.Chemscore.Internal.Correction>  (176) 


>  <PLP.Chemscore.Metal>  (176) 


>  <PLP.Fitness>  (176) 


>  <PLP.PLP>  (176) 


>  <PLP.ligand.clash>  (176) 


>  <PLP.ligand.torsion>  (176) 


>  <PLP.part.buried>  (176) 


>  <PLP.part.hbond>  (176) 


>  <PLP.part.metal>  (176) 


>  <PLP.part.nonpolar>  (176) 


>  <PLP.part.repulsive>  (176) 


>  <Version>  (176) 


$$$$
176|Compound_63|Compounds_3D_F|sdf|27|dock1|1
     RDKit          3D

 12 11  0  0  0  0  0  0  0  0999 V2000
  -13.4271  -19.1704   13.1368 O   0  0  0  0  0  0  0  0  0  0  0  0
  -12.5279  -18.8364   11.8433 P   0  0  0  0  0  0  0  0  0  0  0  0
  -11.5419  -17.7876   12.1865 O   0  0  0  0  0  0  0  0  0  0  0  0
  -11.7543  -20.1672   11.3710 O   0  0  0  0  0  0  0  0  0  0  0  0
  -13.6013  -18.2451   10.4937 C   0  0  0  0  0  0  0  0  0  0  0  0
  -13.3980  -19.1249    9.2584 C   0  0  0  0  0  0  0  0  0  0  0  0
  -14.5926  -20.0671    9.1010 C   0  0  0  0  0  0  0  0  0  0  0  0
  -14.3531  -21.0011    7.9141 C   0  0  0  0  0  0  0  0  0  0  0  0
  -15.4310  -21.9912    7.8455 N   0  0  0  0  0  0  0  0  0  0  0  0
  -15.1676  -23.2919    8.0786 C   0  0  0  0  0  0  0  0  0  0  0  0
  -14.0379  -23.6441    8.3444 O   0  0  0  0  0  0  0  0  0  0  0  0
  -16.3226  -24.3525    8.0047 B   0  0  0  0  0  0  0  0  0  0  0  0
  1  2  1  0
  2  3  2  0
  2  4  1  0
  2  5  1  0
  5  6  1  0
  6  7  1  0
  7  8  1  0
  8  9  1  0
  9 10  1  0
 10 11  2  0
 10 12  1  0
M  END
>  <Gold.Gold.Protein.RotatedWaterAtoms>  (177) 


>  <Gold.Id.Protein>  (177) 


>  <Gold.PLP.Chemscore.CHOScore>  (177) 
0.0000

>  <Gold.PLP.Chemscore.Hbond>  (177) 
3.9280

>  <Gold.PLP.Chemscore.Internal.Correction>  (177) 
0.0683

>  <Gold.PLP.Chemscore.Metal>  (177) 
0.0000

>  <Gold.PLP.Fitness>  (177) 
39.7767

>  <Gold.PLP.PLP>  (177) 
-28.6694

>  <Gold.PLP.ligand.clash>  (177) 
0.0000

>  <Gold.PLP.ligand.torsion>  (177) 
0.3725

>  <Gold.PLP.part.buried>  (177) 
-2.5191

>  <Gold.PLP.part.hbond>  (177) 
-4.4783

>  <Gold.PLP.part.metal>  (177) 
0.0000

>  <Gold.PLP.part.nonpolar>  (177) 
-21.5909

>  <Gold.PLP.part.repulsive>  (177) 
0.1936

>  <Gold.Protein.RotatedAtoms>  (177) 


>  <Gold.Protein.RotatedTorsions>  (177) 


>  <Gold.Protein.RotatedWaterAtoms>  (177) 


>  <Gold.Version>  (177) 
5.3.0

>  <PLP.Chemscore.CHOScore>  (177) 


>  <PLP.Chemscore.Hbond>  (177) 


>  <PLP.Chemscore.Internal.Correction>  (177) 


>  <PLP.Chemscore.Metal>  (177) 


>  <PLP.Fitness>  (177) 


>  <PLP.PLP>  (177) 


>  <PLP.ligand.clash>  (177) 


>  <PLP.ligand.torsion>  (177) 


>  <PLP.part.buried>  (177) 


>  <PLP.part.hbond>  (177) 


>  <PLP.part.metal>  (177) 


>  <PLP.part.nonpolar>  (177) 


>  <PLP.part.repulsive>  (177) 


>  <Version>  (177) 


$$$$
177|Compound_63|Compounds_3D_F|sdf|27|dock2|1
     RDKit          3D

 12 11  0  0  0  0  0  0  0  0999 V2000
   -8.8110  -14.8976   10.0565 O   0  0  0  0  0  0  0  0  0  0  0  0
   -8.7992  -14.1766   11.4964 P   0  0  0  0  0  0  0  0  0  0  0  0
   -9.2652  -12.7796   11.3514 O   0  0  0  0  0  0  0  0  0  0  0  0
   -9.7787  -14.9684   12.4995 O   0  0  0  0  0  0  0  0  0  0  0  0
   -7.1041  -14.1869   12.1667 C   0  0  0  0  0  0  0  0  0  0  0  0
   -6.4657  -15.5549   11.9170 C   0  0  0  0  0  0  0  0  0  0  0  0
   -5.0076  -15.5293   12.3783 C   0  0  0  0  0  0  0  0  0  0  0  0
   -4.3093  -16.8155   11.9351 C   0  0  0  0  0  0  0  0  0  0  0  0
   -3.6291  -16.5875   10.6575 N   0  0  0  0  0  0  0  0  0  0  0  0
   -2.8564  -17.5534   10.1232 C   0  0  0  0  0  0  0  0  0  0  0  0
   -2.7227  -18.6120   10.7000 O   0  0  0  0  0  0  0  0  0  0  0  0
   -2.1275  -17.3087    8.7547 B   0  0  0  0  0  0  0  0  0  0  0  0
  1  2  1  0
  2  3  2  0
  2  4  1  0
  2  5  1  0
  5  6  1  0
  6  7  1  0
  7  8  1  0
  8  9  1  0
  9 10  1  0
 10 11  2  0
 10 12  1  0
M  END
>  <Gold.Gold.Protein.RotatedWaterAtoms>  (178) 


>  <Gold.Id.Protein>  (178) 


>  <Gold.PLP.Chemscore.CHOScore>  (178) 
0.0000

>  <Gold.PLP.Chemscore.Hbond>  (178) 
4.0000

>  <Gold.PLP.Chemscore.Internal.Correction>  (178) 
0.0207

>  <Gold.PLP.Chemscore.Metal>  (178) 
0.0000

>  <Gold.PLP.Fitness>  (178) 
39.0299

>  <Gold.PLP.PLP>  (178) 
-28.2490

>  <Gold.PLP.ligand.clash>  (178) 
0.0000

>  <Gold.PLP.ligand.torsion>  (178) 
0.6199

>  <Gold.PLP.part.buried>  (178) 
-4.9222

>  <Gold.PLP.part.hbond>  (178) 
-4.7571

>  <Gold.PLP.part.metal>  (178) 
0.0000

>  <Gold.PLP.part.nonpolar>  (178) 
-18.7841

>  <Gold.PLP.part.repulsive>  (178) 
0.2483

>  <Gold.Protein.RotatedAtoms>  (178) 


>  <Gold.Protein.RotatedTorsions>  (178) 


>  <Gold.Protein.RotatedWaterAtoms>  (178) 


>  <Gold.Version>  (178) 
5.3.0

>  <PLP.Chemscore.CHOScore>  (178) 


>  <PLP.Chemscore.Hbond>  (178) 


>  <PLP.Chemscore.Internal.Correction>  (178) 


>  <PLP.Chemscore.Metal>  (178) 


>  <PLP.Fitness>  (178) 


>  <PLP.PLP>  (178) 


>  <PLP.ligand.clash>  (178) 


>  <PLP.ligand.torsion>  (178) 


>  <PLP.part.buried>  (178) 


>  <PLP.part.hbond>  (178) 


>  <PLP.part.metal>  (178) 


>  <PLP.part.nonpolar>  (178) 


>  <PLP.part.repulsive>  (178) 


>  <Version>  (178) 


$$$$
178|Compound_63|Compounds_3D_F|sdf|27|dock3|1
     RDKit          3D

 12 11  0  0  0  0  0  0  0  0999 V2000
   -9.3911  -13.7155   10.4588 O   0  0  0  0  0  0  0  0  0  0  0  0
   -8.8275  -14.2775   11.8587 P   0  0  0  0  0  0  0  0  0  0  0  0
   -8.0328  -13.2239   12.5282 O   0  0  0  0  0  0  0  0  0  0  0  0
  -10.0622  -14.7002   12.8019 O   0  0  0  0  0  0  0  0  0  0  0  0
   -7.7729  -15.7317   11.5489 C   0  0  0  0  0  0  0  0  0  0  0  0
   -6.3549  -15.4486   12.0492 C   0  0  0  0  0  0  0  0  0  0  0  0
   -5.5750  -16.7611   12.1418 C   0  0  0  0  0  0  0  0  0  0  0  0
   -4.0826  -16.4592   12.2838 C   0  0  0  0  0  0  0  0  0  0  0  0
   -3.4798  -16.3361   10.9540 N   0  0  0  0  0  0  0  0  0  0  0  0
   -3.0996  -17.4399   10.2812 C   0  0  0  0  0  0  0  0  0  0  0  0
   -3.2554  -18.5361   10.7763 O   0  0  0  0  0  0  0  0  0  0  0  0
   -2.4535  -17.3076    8.8567 B   0  0  0  0  0  0  0  0  0  0  0  0
  1  2  1  0
  2  3  2  0
  2  4  1  0
  2  5  1  0
  5  6  1  0
  6  7  1  0
  7  8  1  0
  8  9  1  0
  9 10  1  0
 10 11  2  0
 10 12  1  0
M  END
>  <Gold.Gold.Protein.RotatedWaterAtoms>  (179) 


>  <Gold.Id.Protein>  (179) 


>  <Gold.PLP.Chemscore.CHOScore>  (179) 
0.0000

>  <Gold.PLP.Chemscore.Hbond>  (179) 
3.2240

>  <Gold.PLP.Chemscore.Internal.Correction>  (179) 
0.0207

>  <Gold.PLP.Chemscore.Metal>  (179) 
0.0000

>  <Gold.PLP.Fitness>  (179) 
36.9532

>  <Gold.PLP.PLP>  (179) 
-28.1444

>  <Gold.PLP.ligand.clash>  (179) 
0.0000

>  <Gold.PLP.ligand.torsion>  (179) 
0.4420

>  <Gold.PLP.part.buried>  (179) 
-4.0541

>  <Gold.PLP.part.hbond>  (179) 
-5.7876

>  <Gold.PLP.part.metal>  (179) 
0.0000

>  <Gold.PLP.part.nonpolar>  (179) 
-17.9327

>  <Gold.PLP.part.repulsive>  (179) 
0.2688

>  <Gold.Protein.RotatedAtoms>  (179) 


>  <Gold.Protein.RotatedTorsions>  (179) 


>  <Gold.Protein.RotatedWaterAtoms>  (179) 


>  <Gold.Version>  (179) 
5.3.0

>  <PLP.Chemscore.CHOScore>  (179) 


>  <PLP.Chemscore.Hbond>  (179) 


>  <PLP.Chemscore.Internal.Correction>  (179) 


>  <PLP.Chemscore.Metal>  (179) 


>  <PLP.Fitness>  (179) 


>  <PLP.PLP>  (179) 


>  <PLP.ligand.clash>  (179) 


>  <PLP.ligand.torsion>  (179) 


>  <PLP.part.buried>  (179) 


>  <PLP.part.hbond>  (179) 


>  <PLP.part.metal>  (179) 


>  <PLP.part.nonpolar>  (179) 


>  <PLP.part.repulsive>  (179) 


>  <Version>  (179) 


$$$$
179|Compound_63|Compounds_3D_F|sdf|27|dock4|1
     RDKit          3D

 12 11  0  0  0  0  0  0  0  0999 V2000
   -9.3169  -14.4554   10.1824 O   0  0  0  0  0  0  0  0  0  0  0  0
   -8.7744  -14.1006   11.6565 P   0  0  0  0  0  0  0  0  0  0  0  0
   -8.1908  -12.7407   11.6523 O   0  0  0  0  0  0  0  0  0  0  0  0
   -9.9954  -14.1581   12.7045 O   0  0  0  0  0  0  0  0  0  0  0  0
   -7.4989  -15.3093   12.1415 C   0  0  0  0  0  0  0  0  0  0  0  0
   -7.6567  -16.5802   11.3042 C   0  0  0  0  0  0  0  0  0  0  0  0
   -8.8736  -17.3665   11.7948 C   0  0  0  0  0  0  0  0  0  0  0  0
   -9.0316  -18.6368   10.9582 C   0  0  0  0  0  0  0  0  0  0  0  0
  -10.3383  -18.6263   10.2952 N   0  0  0  0  0  0  0  0  0  0  0  0
  -11.4644  -18.5119   11.0261 C   0  0  0  0  0  0  0  0  0  0  0  0
  -11.3972  -18.4183   12.2335 O   0  0  0  0  0  0  0  0  0  0  0  0
  -12.8640  -18.5011   10.3154 B   0  0  0  0  0  0  0  0  0  0  0  0
  1  2  1  0
  2  3  2  0
  2  4  1  0
  2  5  1  0
  5  6  1  0
  6  7  1  0
  7  8  1  0
  8  9  1  0
  9 10  1  0
 10 11  2  0
 10 12  1  0
M  END
>  <Gold.Gold.Protein.RotatedWaterAtoms>  (180) 


>  <Gold.Id.Protein>  (180) 


>  <Gold.PLP.Chemscore.CHOScore>  (180) 
0.0000

>  <Gold.PLP.Chemscore.Hbond>  (180) 
3.9760

>  <Gold.PLP.Chemscore.Internal.Correction>  (180) 
0.0207

>  <Gold.PLP.Chemscore.Metal>  (180) 
0.0000

>  <Gold.PLP.Fitness>  (180) 
37.1339

>  <Gold.PLP.PLP>  (180) 
-26.9375

>  <Gold.PLP.ligand.clash>  (180) 
0.0000

>  <Gold.PLP.ligand.torsion>  (180) 
0.8761

>  <Gold.PLP.part.buried>  (180) 
-6.0657

>  <Gold.PLP.part.hbond>  (180) 
-5.8404

>  <Gold.PLP.part.metal>  (180) 
0.0000

>  <Gold.PLP.part.nonpolar>  (180) 
-15.8645

>  <Gold.PLP.part.repulsive>  (180) 
0.1580

>  <Gold.Protein.RotatedAtoms>  (180) 


>  <Gold.Protein.RotatedTorsions>  (180) 


>  <Gold.Protein.RotatedWaterAtoms>  (180) 


>  <Gold.Version>  (180) 
5.3.0

>  <PLP.Chemscore.CHOScore>  (180) 


>  <PLP.Chemscore.Hbond>  (180) 


>  <PLP.Chemscore.Internal.Correction>  (180) 


>  <PLP.Chemscore.Metal>  (180) 


>  <PLP.Fitness>  (180) 


>  <PLP.PLP>  (180) 


>  <PLP.ligand.clash>  (180) 


>  <PLP.ligand.torsion>  (180) 


>  <PLP.part.buried>  (180) 


>  <PLP.part.hbond>  (180) 


>  <PLP.part.metal>  (180) 


>  <PLP.part.nonpolar>  (180) 


>  <PLP.part.repulsive>  (180) 


>  <Version>  (180) 


$$$$
180|Compound_63|Compounds_3D_F|sdf|27|dock5|1
     RDKit          3D

 12 11  0  0  0  0  0  0  0  0999 V2000
  -16.5901  -22.4382    7.1227 O   0  0  0  0  0  0  0  0  0  0  0  0
  -15.0820  -22.3161    7.6742 P   0  0  0  0  0  0  0  0  0  0  0  0
  -14.4978  -23.6685    7.8139 O   0  0  0  0  0  0  0  0  0  0  0  0
  -14.2011  -21.4548    6.6375 O   0  0  0  0  0  0  0  0  0  0  0  0
  -15.0943  -21.4871    9.2976 C   0  0  0  0  0  0  0  0  0  0  0  0
  -14.3140  -20.1741    9.2051 C   0  0  0  0  0  0  0  0  0  0  0  0
  -14.2025  -19.5479   10.5961 C   0  0  0  0  0  0  0  0  0  0  0  0
  -13.2882  -18.3237   10.5330 C   0  0  0  0  0  0  0  0  0  0  0  0
  -11.8887  -18.7562   10.5677 N   0  0  0  0  0  0  0  0  0  0  0  0
  -11.0781  -18.3380   11.5595 C   0  0  0  0  0  0  0  0  0  0  0  0
  -11.5064  -17.6027   12.4238 O   0  0  0  0  0  0  0  0  0  0  0  0
   -9.5787  -18.8012   11.5962 B   0  0  0  0  0  0  0  0  0  0  0  0
  1  2  1  0
  2  3  2  0
  2  4  1  0
  2  5  1  0
  5  6  1  0
  6  7  1  0
  7  8  1  0
  8  9  1  0
  9 10  1  0
 10 11  2  0
 10 12  1  0
M  END
>  <Gold.Gold.Protein.RotatedWaterAtoms>  (181) 


>  <Gold.Id.Protein>  (181) 


>  <Gold.PLP.Chemscore.CHOScore>  (181) 
0.0000

>  <Gold.PLP.Chemscore.Hbond>  (181) 
4.0000

>  <Gold.PLP.Chemscore.Internal.Correction>  (181) 
0.0184

>  <Gold.PLP.Chemscore.Metal>  (181) 
0.0000

>  <Gold.PLP.Fitness>  (181) 
38.6947

>  <Gold.PLP.PLP>  (181) 
-26.9372

>  <Gold.PLP.ligand.clash>  (181) 
0.0000

>  <Gold.PLP.ligand.torsion>  (181) 
0.1305

>  <Gold.PLP.part.buried>  (181) 
-1.0181

>  <Gold.PLP.part.hbond>  (181) 
-6.6931

>  <Gold.PLP.part.metal>  (181) 
0.0000

>  <Gold.PLP.part.nonpolar>  (181) 
-19.4826

>  <Gold.PLP.part.repulsive>  (181) 
0.0927

>  <Gold.Protein.RotatedAtoms>  (181) 


>  <Gold.Protein.RotatedTorsions>  (181) 


>  <Gold.Protein.RotatedWaterAtoms>  (181) 


>  <Gold.Version>  (181) 
5.3.0

>  <PLP.Chemscore.CHOScore>  (181) 


>  <PLP.Chemscore.Hbond>  (181) 


>  <PLP.Chemscore.Internal.Correction>  (181) 


>  <PLP.Chemscore.Metal>  (181) 


>  <PLP.Fitness>  (181) 


>  <PLP.PLP>  (181) 


>  <PLP.ligand.clash>  (181) 


>  <PLP.ligand.torsion>  (181) 


>  <PLP.part.buried>  (181) 


>  <PLP.part.hbond>  (181) 


>  <PLP.part.metal>  (181) 


>  <PLP.part.nonpolar>  (181) 


>  <PLP.part.repulsive>  (181) 


>  <Version>  (181) 


$$$$
181|Compound_63|Compounds_3D_F|sdf|27|dock6|1
     RDKit          3D

 12 11  0  0  0  0  0  0  0  0999 V2000
   -9.0848  -14.6761   10.3045 O   0  0  0  0  0  0  0  0  0  0  0  0
   -8.8710  -13.7943   11.6349 P   0  0  0  0  0  0  0  0  0  0  0  0
   -8.9872  -12.3580   11.2977 O   0  0  0  0  0  0  0  0  0  0  0  0
   -9.9938  -14.1836   12.7214 O   0  0  0  0  0  0  0  0  0  0  0  0
   -7.2164  -14.1262   12.3242 C   0  0  0  0  0  0  0  0  0  0  0  0
   -6.6839  -15.4445   11.7585 C   0  0  0  0  0  0  0  0  0  0  0  0
   -5.2601  -15.6790   12.2656 C   0  0  0  0  0  0  0  0  0  0  0  0
   -4.6770  -16.9224   11.5928 C   0  0  0  0  0  0  0  0  0  0  0  0
   -3.8040  -16.5168   10.4881 N   0  0  0  0  0  0  0  0  0  0  0  0
   -3.0900  -17.4424    9.8181 C   0  0  0  0  0  0  0  0  0  0  0  0
   -3.1689  -18.6120   10.1297 O   0  0  0  0  0  0  0  0  0  0  0  0
   -2.1546  -17.0075    8.6349 B   0  0  0  0  0  0  0  0  0  0  0  0
  1  2  1  0
  2  3  2  0
  2  4  1  0
  2  5  1  0
  5  6  1  0
  6  7  1  0
  7  8  1  0
  8  9  1  0
  9 10  1  0
 10 11  2  0
 10 12  1  0
M  END
>  <Gold.Gold.Protein.RotatedWaterAtoms>  (182) 


>  <Gold.Id.Protein>  (182) 


>  <Gold.PLP.Chemscore.CHOScore>  (182) 
0.0000

>  <Gold.PLP.Chemscore.Hbond>  (182) 
2.9301

>  <Gold.PLP.Chemscore.Internal.Correction>  (182) 
0.0184

>  <Gold.PLP.Chemscore.Metal>  (182) 
0.0000

>  <Gold.PLP.Fitness>  (182) 
36.9654

>  <Gold.PLP.PLP>  (182) 
-29.5418

>  <Gold.PLP.ligand.clash>  (182) 
0.0000

>  <Gold.PLP.ligand.torsion>  (182) 
0.6926

>  <Gold.PLP.part.buried>  (182) 
-4.6353

>  <Gold.PLP.part.hbond>  (182) 
-6.0715

>  <Gold.PLP.part.metal>  (182) 
0.0000

>  <Gold.PLP.part.nonpolar>  (182) 
-18.7856

>  <Gold.PLP.part.repulsive>  (182) 
0.2683

>  <Gold.Protein.RotatedAtoms>  (182) 


>  <Gold.Protein.RotatedTorsions>  (182) 


>  <Gold.Protein.RotatedWaterAtoms>  (182) 


>  <Gold.Version>  (182) 
5.3.0

>  <PLP.Chemscore.CHOScore>  (182) 


>  <PLP.Chemscore.Hbond>  (182) 


>  <PLP.Chemscore.Internal.Correction>  (182) 


>  <PLP.Chemscore.Metal>  (182) 


>  <PLP.Fitness>  (182) 


>  <PLP.PLP>  (182) 


>  <PLP.ligand.clash>  (182) 


>  <PLP.ligand.torsion>  (182) 


>  <PLP.part.buried>  (182) 


>  <PLP.part.hbond>  (182) 


>  <PLP.part.metal>  (182) 


>  <PLP.part.nonpolar>  (182) 


>  <PLP.part.repulsive>  (182) 


>  <Version>  (182) 


$$$$
182|Compound_63|Compounds_3D_F|sdf|27|dock7|1
     RDKit          3D

 12 11  0  0  0  0  0  0  0  0999 V2000
  -10.6941  -17.5895    9.8618 O   0  0  0  0  0  0  0  0  0  0  0  0
  -11.6293  -18.3384   10.9378 P   0  0  0  0  0  0  0  0  0  0  0  0
  -11.1931  -19.7459   11.0744 O   0  0  0  0  0  0  0  0  0  0  0  0
  -11.5060  -17.5971   12.3619 O   0  0  0  0  0  0  0  0  0  0  0  0
  -13.3622  -18.2897   10.3745 C   0  0  0  0  0  0  0  0  0  0  0  0
  -13.4892  -19.0469    9.0509 C   0  0  0  0  0  0  0  0  0  0  0  0
  -14.3241  -20.3106    9.2643 C   0  0  0  0  0  0  0  0  0  0  0  0
  -14.4154  -21.0897    7.9516 C   0  0  0  0  0  0  0  0  0  0  0  0
  -15.7361  -21.7152    7.8449 N   0  0  0  0  0  0  0  0  0  0  0  0
  -15.8850  -23.0266    8.1164 C   0  0  0  0  0  0  0  0  0  0  0  0
  -14.9257  -23.6902    8.4485 O   0  0  0  0  0  0  0  0  0  0  0  0
  -17.3000  -23.6965    8.0016 B   0  0  0  0  0  0  0  0  0  0  0  0
  1  2  1  0
  2  3  2  0
  2  4  1  0
  2  5  1  0
  5  6  1  0
  6  7  1  0
  7  8  1  0
  8  9  1  0
  9 10  1  0
 10 11  2  0
 10 12  1  0
M  END
>  <Gold.Gold.Protein.RotatedWaterAtoms>  (183) 


>  <Gold.Id.Protein>  (183) 


>  <Gold.PLP.Chemscore.CHOScore>  (183) 
0.0000

>  <Gold.PLP.Chemscore.Hbond>  (183) 
3.3908

>  <Gold.PLP.Chemscore.Internal.Correction>  (183) 
0.0184

>  <Gold.PLP.Chemscore.Metal>  (183) 
0.0000

>  <Gold.PLP.Fitness>  (183) 
38.3506

>  <Gold.PLP.PLP>  (183) 
-29.6379

>  <Gold.PLP.ligand.clash>  (183) 
0.0000

>  <Gold.PLP.ligand.torsion>  (183) 
0.7391

>  <Gold.PLP.part.buried>  (183) 
0.0097

>  <Gold.PLP.part.hbond>  (183) 
-4.2629

>  <Gold.PLP.part.metal>  (183) 
0.0000

>  <Gold.PLP.part.nonpolar>  (183) 
-24.9621

>  <Gold.PLP.part.repulsive>  (183) 
0.2494

>  <Gold.Protein.RotatedAtoms>  (183) 


>  <Gold.Protein.RotatedTorsions>  (183) 


>  <Gold.Protein.RotatedWaterAtoms>  (183) 


>  <Gold.Version>  (183) 
5.3.0

>  <PLP.Chemscore.CHOScore>  (183) 


>  <PLP.Chemscore.Hbond>  (183) 


>  <PLP.Chemscore.Internal.Correction>  (183) 


>  <PLP.Chemscore.Metal>  (183) 


>  <PLP.Fitness>  (183) 


>  <PLP.PLP>  (183) 


>  <PLP.ligand.clash>  (183) 


>  <PLP.ligand.torsion>  (183) 


>  <PLP.part.buried>  (183) 


>  <PLP.part.hbond>  (183) 


>  <PLP.part.metal>  (183) 


>  <PLP.part.nonpolar>  (183) 


>  <PLP.part.repulsive>  (183) 


>  <Version>  (183) 


$$$$
183|Compound_63|Compounds_3D_F|sdf|27|dock8|1
     RDKit          3D

 12 11  0  0  0  0  0  0  0  0999 V2000
   -9.0883  -14.6153   10.3510 O   0  0  0  0  0  0  0  0  0  0  0  0
   -8.6770  -14.3290   11.8814 P   0  0  0  0  0  0  0  0  0  0  0  0
   -7.9961  -13.0182   11.9713 O   0  0  0  0  0  0  0  0  0  0  0  0
  -10.0013  -14.3105   12.7971 O   0  0  0  0  0  0  0  0  0  0  0  0
   -7.5529  -15.6405   12.4637 C   0  0  0  0  0  0  0  0  0  0  0  0
   -6.2561  -15.5973   11.6527 C   0  0  0  0  0  0  0  0  0  0  0  0
   -5.3577  -16.7647   12.0646 C   0  0  0  0  0  0  0  0  0  0  0  0
   -4.0513  -16.7078   11.2717 C   0  0  0  0  0  0  0  0  0  0  0  0
   -3.4064  -18.0233   11.2967 N   0  0  0  0  0  0  0  0  0  0  0  0
   -2.2530  -18.2216   10.6289 C   0  0  0  0  0  0  0  0  0  0  0  0
   -1.7484  -17.3114   10.0059 O   0  0  0  0  0  0  0  0  0  0  0  0
   -1.5625  -19.6310   10.6556 B   0  0  0  0  0  0  0  0  0  0  0  0
  1  2  1  0
  2  3  2  0
  2  4  1  0
  2  5  1  0
  5  6  1  0
  6  7  1  0
  7  8  1  0
  8  9  1  0
  9 10  1  0
 10 11  2  0
 10 12  1  0
M  END
>  <Gold.Gold.Protein.RotatedWaterAtoms>  (184) 


>  <Gold.Id.Protein>  (184) 


>  <Gold.PLP.Chemscore.CHOScore>  (184) 
0.0000

>  <Gold.PLP.Chemscore.Hbond>  (184) 
3.3444

>  <Gold.PLP.Chemscore.Internal.Correction>  (184) 
0.0184

>  <Gold.PLP.Chemscore.Metal>  (184) 
0.0000

>  <Gold.PLP.Fitness>  (184) 
37.5503

>  <Gold.PLP.PLP>  (184) 
-27.7370

>  <Gold.PLP.ligand.clash>  (184) 
0.0000

>  <Gold.PLP.ligand.torsion>  (184) 
0.1192

>  <Gold.PLP.part.buried>  (184) 
-5.8315

>  <Gold.PLP.part.hbond>  (184) 
-5.9598

>  <Gold.PLP.part.metal>  (184) 
0.0000

>  <Gold.PLP.part.nonpolar>  (184) 
-16.7964

>  <Gold.PLP.part.repulsive>  (184) 
0.2680

>  <Gold.Protein.RotatedAtoms>  (184) 


>  <Gold.Protein.RotatedTorsions>  (184) 


>  <Gold.Protein.RotatedWaterAtoms>  (184) 


>  <Gold.Version>  (184) 
5.3.0

>  <PLP.Chemscore.CHOScore>  (184) 


>  <PLP.Chemscore.Hbond>  (184) 


>  <PLP.Chemscore.Internal.Correction>  (184) 


>  <PLP.Chemscore.Metal>  (184) 


>  <PLP.Fitness>  (184) 


>  <PLP.PLP>  (184) 


>  <PLP.ligand.clash>  (184) 


>  <PLP.ligand.torsion>  (184) 


>  <PLP.part.buried>  (184) 


>  <PLP.part.hbond>  (184) 


>  <PLP.part.metal>  (184) 


>  <PLP.part.nonpolar>  (184) 


>  <PLP.part.repulsive>  (184) 


>  <Version>  (184) 


$$$$
184|Compound_63|Compounds_3D_F|sdf|27|dock9|1
     RDKit          3D

 12 11  0  0  0  0  0  0  0  0999 V2000
   -8.9293  -14.5811   10.1152 O   0  0  0  0  0  0  0  0  0  0  0  0
   -8.7901  -14.3357   11.7007 P   0  0  0  0  0  0  0  0  0  0  0  0
   -9.3347  -13.0028   12.0423 O   0  0  0  0  0  0  0  0  0  0  0  0
   -9.6125  -15.4712   12.4924 O   0  0  0  0  0  0  0  0  0  0  0  0
   -7.0319  -14.4153   12.1755 C   0  0  0  0  0  0  0  0  0  0  0  0
   -6.4849  -15.8117   11.8719 C   0  0  0  0  0  0  0  0  0  0  0  0
   -4.9892  -15.8538   12.1893 C   0  0  0  0  0  0  0  0  0  0  0  0
   -4.3553  -17.0636   11.5014 C   0  0  0  0  0  0  0  0  0  0  0  0
   -3.4448  -16.6061   10.4485 N   0  0  0  0  0  0  0  0  0  0  0  0
   -2.7459  -17.5025    9.7250 C   0  0  0  0  0  0  0  0  0  0  0  0
   -2.8694  -18.6888    9.9455 O   0  0  0  0  0  0  0  0  0  0  0  0
   -1.7703  -17.0121    8.5974 B   0  0  0  0  0  0  0  0  0  0  0  0
  1  2  1  0
  2  3  2  0
  2  4  1  0
  2  5  1  0
  5  6  1  0
  6  7  1  0
  7  8  1  0
  8  9  1  0
  9 10  1  0
 10 11  2  0
 10 12  1  0
M  END
>  <Gold.Gold.Protein.RotatedWaterAtoms>  (185) 


>  <Gold.Id.Protein>  (185) 


>  <Gold.PLP.Chemscore.CHOScore>  (185) 
0.0000

>  <Gold.PLP.Chemscore.Hbond>  (185) 
3.9440

>  <Gold.PLP.Chemscore.Internal.Correction>  (185) 
0.0184

>  <Gold.PLP.Chemscore.Metal>  (185) 
0.0000

>  <Gold.PLP.Fitness>  (185) 
38.0921

>  <Gold.PLP.PLP>  (185) 
-27.1290

>  <Gold.PLP.ligand.clash>  (185) 
0.0000

>  <Gold.PLP.ligand.torsion>  (185) 
0.4437

>  <Gold.PLP.part.buried>  (185) 
-3.6164

>  <Gold.PLP.part.hbond>  (185) 
-5.0000

>  <Gold.PLP.part.metal>  (185) 
0.0000

>  <Gold.PLP.part.nonpolar>  (185) 
-18.3766

>  <Gold.PLP.part.repulsive>  (185) 
0.2363

>  <Gold.Protein.RotatedAtoms>  (185) 


>  <Gold.Protein.RotatedTorsions>  (185) 


>  <Gold.Protein.RotatedWaterAtoms>  (185) 


>  <Gold.Version>  (185) 
5.3.0

>  <PLP.Chemscore.CHOScore>  (185) 


>  <PLP.Chemscore.Hbond>  (185) 


>  <PLP.Chemscore.Internal.Correction>  (185) 


>  <PLP.Chemscore.Metal>  (185) 


>  <PLP.Fitness>  (185) 


>  <PLP.PLP>  (185) 


>  <PLP.ligand.clash>  (185) 


>  <PLP.ligand.torsion>  (185) 


>  <PLP.part.buried>  (185) 


>  <PLP.part.hbond>  (185) 


>  <PLP.part.metal>  (185) 


>  <PLP.part.nonpolar>  (185) 


>  <PLP.part.repulsive>  (185) 


>  <Version>  (185) 


$$$$
185|Compound_148|Compounds_3D_F|sdf|28|dock1|1
     RDKit          3D

 13 12  0  0  0  0  0  0  0  0999 V2000
   -9.4997  -15.2608    9.7257 O   0  0  0  0  0  0  0  0  0  0  0  0
   -8.5101  -15.2479   10.6381 C   0  0  0  0  0  0  0  0  0  0  0  0
   -7.4650  -14.6508   10.4273 O   0  0  0  0  0  0  0  0  0  0  0  0
   -8.7925  -16.0869   11.8708 C   0  0  0  0  0  0  0  0  0  0  0  0
   -9.9693  -15.5798   12.5186 O   0  0  0  0  0  0  0  0  0  0  0  0
   -9.0253  -17.5539   11.5093 C   0  0  0  0  0  0  0  0  0  0  0  0
  -10.2565  -17.7303   10.7545 N   0  0  0  0  0  0  0  0  0  0  0  0
  -11.3507  -18.3895   11.2838 C   0  0  0  0  0  0  0  0  0  0  0  0
  -11.3625  -18.8768   12.4117 O   0  0  0  0  0  0  0  0  0  0  0  0
  -12.5551  -18.4363   10.3454 C   0  0  0  0  0  0  0  0  0  0  0  0
  -12.9398  -19.8305   10.0522 N   0  0  0  0  0  0  0  0  0  0  0  0
  -14.2010  -19.9089    9.3118 C   0  0  0  0  0  0  0  0  0  0  0  0
  -11.8753  -20.4917    9.2951 C   0  0  0  0  0  0  0  0  0  0  0  0
  1  2  1  0
  2  3  2  0
  2  4  1  0
  4  5  1  0
  4  6  1  0
  6  7  1  0
  7  8  1  0
  8  9  2  0
  8 10  1  0
 10 11  1  0
 11 12  1  0
 11 13  1  0
M  END
>  <Gold.Gold.Protein.RotatedWaterAtoms>  (186) 


>  <Gold.Id.Protein>  (186) 


>  <Gold.PLP.Chemscore.CHOScore>  (186) 
0.0000

>  <Gold.PLP.Chemscore.Hbond>  (186) 
3.9760

>  <Gold.PLP.Chemscore.Internal.Correction>  (186) 
0.0595

>  <Gold.PLP.Chemscore.Metal>  (186) 
0.0000

>  <Gold.PLP.Fitness>  (186) 
38.1995

>  <Gold.PLP.PLP>  (186) 
-26.3998

>  <Gold.PLP.ligand.clash>  (186) 
0.0000

>  <Gold.PLP.ligand.torsion>  (186) 
0.0939

>  <Gold.PLP.part.buried>  (186) 
-4.9234

>  <Gold.PLP.part.hbond>  (186) 
-5.8230

>  <Gold.PLP.part.metal>  (186) 
0.0000

>  <Gold.PLP.part.nonpolar>  (186) 
-16.5425

>  <Gold.PLP.part.repulsive>  (186) 
0.1469

>  <Gold.Protein.RotatedAtoms>  (186) 


>  <Gold.Protein.RotatedTorsions>  (186) 


>  <Gold.Protein.RotatedWaterAtoms>  (186) 


>  <Gold.Version>  (186) 
5.3.0

>  <PLP.Chemscore.CHOScore>  (186) 


>  <PLP.Chemscore.Hbond>  (186) 


>  <PLP.Chemscore.Internal.Correction>  (186) 


>  <PLP.Chemscore.Metal>  (186) 


>  <PLP.Fitness>  (186) 


>  <PLP.PLP>  (186) 


>  <PLP.ligand.clash>  (186) 


>  <PLP.ligand.torsion>  (186) 


>  <PLP.part.buried>  (186) 


>  <PLP.part.hbond>  (186) 


>  <PLP.part.metal>  (186) 


>  <PLP.part.nonpolar>  (186) 


>  <PLP.part.repulsive>  (186) 


>  <Version>  (186) 


$$$$
186|Compound_148|Compounds_3D_F|sdf|28|dock2|1
     RDKit          3D

 13 12  0  0  0  0  0  0  0  0999 V2000
  -10.4415  -19.4967   12.1492 O   0  0  0  0  0  0  0  0  0  0  0  0
  -10.4983  -18.1991   11.7954 C   0  0  0  0  0  0  0  0  0  0  0  0
  -11.2890  -17.4339   12.3269 O   0  0  0  0  0  0  0  0  0  0  0  0
   -9.5671  -17.8257   10.6567 C   0  0  0  0  0  0  0  0  0  0  0  0
   -9.8790  -16.4944   10.2187 O   0  0  0  0  0  0  0  0  0  0  0  0
   -8.1026  -17.8677   11.0935 C   0  0  0  0  0  0  0  0  0  0  0  0
   -7.7503  -16.7073   11.8974 N   0  0  0  0  0  0  0  0  0  0  0  0
   -6.7758  -15.8106   11.4994 C   0  0  0  0  0  0  0  0  0  0  0  0
   -6.1371  -15.9292   10.4565 O   0  0  0  0  0  0  0  0  0  0  0  0
   -6.5817  -14.6429   12.4649 C   0  0  0  0  0  0  0  0  0  0  0  0
   -6.9776  -13.3683   11.8355 N   0  0  0  0  0  0  0  0  0  0  0  0
   -8.4273  -13.1627   11.8742 C   0  0  0  0  0  0  0  0  0  0  0  0
   -6.2981  -12.2538   12.4984 C   0  0  0  0  0  0  0  0  0  0  0  0
  1  2  1  0
  2  3  2  0
  2  4  1  0
  4  5  1  0
  4  6  1  0
  6  7  1  0
  7  8  1  0
  8  9  2  0
  8 10  1  0
 10 11  1  0
 11 12  1  0
 11 13  1  0
M  END
>  <Gold.Gold.Protein.RotatedWaterAtoms>  (187) 


>  <Gold.Id.Protein>  (187) 


>  <Gold.PLP.Chemscore.CHOScore>  (187) 
0.0000

>  <Gold.PLP.Chemscore.Hbond>  (187) 
2.0000

>  <Gold.PLP.Chemscore.Internal.Correction>  (187) 
0.0595

>  <Gold.PLP.Chemscore.Metal>  (187) 
0.0000

>  <Gold.PLP.Fitness>  (187) 
33.9459

>  <Gold.PLP.PLP>  (187) 
-28.9133

>  <Gold.PLP.ligand.clash>  (187) 
0.0000

>  <Gold.PLP.ligand.torsion>  (187) 
0.5135

>  <Gold.PLP.part.buried>  (187) 
-6.9314

>  <Gold.PLP.part.hbond>  (187) 
-2.5830

>  <Gold.PLP.part.metal>  (187) 
0.0000

>  <Gold.PLP.part.nonpolar>  (187) 
-19.7459

>  <Gold.PLP.part.repulsive>  (187) 
0.3068

>  <Gold.Protein.RotatedAtoms>  (187) 


>  <Gold.Protein.RotatedTorsions>  (187) 


>  <Gold.Protein.RotatedWaterAtoms>  (187) 


>  <Gold.Version>  (187) 
5.3.0

>  <PLP.Chemscore.CHOScore>  (187) 


>  <PLP.Chemscore.Hbond>  (187) 


>  <PLP.Chemscore.Internal.Correction>  (187) 


>  <PLP.Chemscore.Metal>  (187) 


>  <PLP.Fitness>  (187) 


>  <PLP.PLP>  (187) 


>  <PLP.ligand.clash>  (187) 


>  <PLP.ligand.torsion>  (187) 


>  <PLP.part.buried>  (187) 


>  <PLP.part.hbond>  (187) 


>  <PLP.part.metal>  (187) 


>  <PLP.part.nonpolar>  (187) 


>  <PLP.part.repulsive>  (187) 


>  <Version>  (187) 


$$$$
187|Compound_148|Compounds_3D_F|sdf|28|dock3|1
     RDKit          3D

 13 12  0  0  0  0  0  0  0  0999 V2000
  -11.7627  -20.0047   13.3979 O   0  0  0  0  0  0  0  0  0  0  0  0
  -11.0093  -19.9534   12.2836 C   0  0  0  0  0  0  0  0  0  0  0  0
  -10.4259  -20.9442   11.8699 O   0  0  0  0  0  0  0  0  0  0  0  0
  -10.9048  -18.5697   11.6690 C   0  0  0  0  0  0  0  0  0  0  0  0
  -11.6516  -17.6455   12.4750 O   0  0  0  0  0  0  0  0  0  0  0  0
   -9.4530  -18.0962   11.5977 C   0  0  0  0  0  0  0  0  0  0  0  0
   -9.3684  -16.6589   11.3884 N   0  0  0  0  0  0  0  0  0  0  0  0
   -8.1545  -16.0004   11.3173 C   0  0  0  0  0  0  0  0  0  0  0  0
   -7.0718  -16.5698   11.4328 O   0  0  0  0  0  0  0  0  0  0  0  0
   -8.2815  -14.5005   11.0575 C   0  0  0  0  0  0  0  0  0  0  0  0
   -7.6867  -13.7231   12.1618 N   0  0  0  0  0  0  0  0  0  0  0  0
   -6.2671  -14.0310   12.3489 C   0  0  0  0  0  0  0  0  0  0  0  0
   -7.8573  -12.2909   11.9104 C   0  0  0  0  0  0  0  0  0  0  0  0
  1  2  1  0
  2  3  2  0
  2  4  1  0
  4  5  1  0
  4  6  1  0
  6  7  1  0
  7  8  1  0
  8  9  2  0
  8 10  1  0
 10 11  1  0
 11 12  1  0
 11 13  1  0
M  END
>  <Gold.Gold.Protein.RotatedWaterAtoms>  (188) 


>  <Gold.Id.Protein>  (188) 


>  <Gold.PLP.Chemscore.CHOScore>  (188) 
0.0000

>  <Gold.PLP.Chemscore.Hbond>  (188) 
3.0000

>  <Gold.PLP.Chemscore.Internal.Correction>  (188) 
0.0576

>  <Gold.PLP.Chemscore.Metal>  (188) 
0.0000

>  <Gold.PLP.Fitness>  (188) 
38.2061

>  <Gold.PLP.PLP>  (188) 
-29.4643

>  <Gold.PLP.ligand.clash>  (188) 
0.0000

>  <Gold.PLP.ligand.torsion>  (188) 
0.1579

>  <Gold.PLP.part.buried>  (188) 
-6.8838

>  <Gold.PLP.part.hbond>  (188) 
-4.0000

>  <Gold.PLP.part.metal>  (188) 
0.0000

>  <Gold.PLP.part.nonpolar>  (188) 
-18.9164

>  <Gold.PLP.part.repulsive>  (188) 
0.1782

>  <Gold.Protein.RotatedAtoms>  (188) 


>  <Gold.Protein.RotatedTorsions>  (188) 


>  <Gold.Protein.RotatedWaterAtoms>  (188) 


>  <Gold.Version>  (188) 
5.3.0

>  <PLP.Chemscore.CHOScore>  (188) 


>  <PLP.Chemscore.Hbond>  (188) 


>  <PLP.Chemscore.Internal.Correction>  (188) 


>  <PLP.Chemscore.Metal>  (188) 


>  <PLP.Fitness>  (188) 


>  <PLP.PLP>  (188) 


>  <PLP.ligand.clash>  (188) 


>  <PLP.ligand.torsion>  (188) 


>  <PLP.part.buried>  (188) 


>  <PLP.part.hbond>  (188) 


>  <PLP.part.metal>  (188) 


>  <PLP.part.nonpolar>  (188) 


>  <PLP.part.repulsive>  (188) 


>  <Version>  (188) 


$$$$
188|Compound_148|Compounds_3D_F|sdf|28|dock4|1
     RDKit          3D

 13 12  0  0  0  0  0  0  0  0999 V2000
   -9.3788  -13.9900   10.5357 O   0  0  0  0  0  0  0  0  0  0  0  0
   -8.4986  -14.9951   10.6999 C   0  0  0  0  0  0  0  0  0  0  0  0
   -7.5989  -15.1842    9.8948 O   0  0  0  0  0  0  0  0  0  0  0  0
   -8.7828  -15.8780   11.9011 C   0  0  0  0  0  0  0  0  0  0  0  0
   -9.9043  -15.3402   12.6184 O   0  0  0  0  0  0  0  0  0  0  0  0
   -9.1118  -17.3100   11.4790 C   0  0  0  0  0  0  0  0  0  0  0  0
  -10.3842  -17.3823   10.7772 N   0  0  0  0  0  0  0  0  0  0  0  0
  -11.0046  -18.5889   10.5103 C   0  0  0  0  0  0  0  0  0  0  0  0
  -10.5307  -19.6757   10.8329 O   0  0  0  0  0  0  0  0  0  0  0  0
  -12.3479  -18.4465    9.7970 C   0  0  0  0  0  0  0  0  0  0  0  0
  -13.1641  -19.6645    9.9643 N   0  0  0  0  0  0  0  0  0  0  0  0
  -13.5639  -19.8715   11.3581 C   0  0  0  0  0  0  0  0  0  0  0  0
  -14.3513  -19.5890    9.1110 C   0  0  0  0  0  0  0  0  0  0  0  0
  1  2  1  0
  2  3  2  0
  2  4  1  0
  4  5  1  0
  4  6  1  0
  6  7  1  0
  7  8  1  0
  8  9  2  0
  8 10  1  0
 10 11  1  0
 11 12  1  0
 11 13  1  0
M  END
>  <Gold.Gold.Protein.RotatedWaterAtoms>  (189) 


>  <Gold.Id.Protein>  (189) 


>  <Gold.PLP.Chemscore.CHOScore>  (189) 
0.0000

>  <Gold.PLP.Chemscore.Hbond>  (189) 
3.6400

>  <Gold.PLP.Chemscore.Internal.Correction>  (189) 
0.0193

>  <Gold.PLP.Chemscore.Metal>  (189) 
0.0000

>  <Gold.PLP.Fitness>  (189) 
36.8764

>  <Gold.PLP.PLP>  (189) 
-26.7561

>  <Gold.PLP.ligand.clash>  (189) 
0.0000

>  <Gold.PLP.ligand.torsion>  (189) 
0.4095

>  <Gold.PLP.part.buried>  (189) 
-4.7496

>  <Gold.PLP.part.hbond>  (189) 
-5.0257

>  <Gold.PLP.part.metal>  (189) 
0.0000

>  <Gold.PLP.part.nonpolar>  (189) 
-16.8639

>  <Gold.PLP.part.repulsive>  (189) 
0.1553

>  <Gold.Protein.RotatedAtoms>  (189) 


>  <Gold.Protein.RotatedTorsions>  (189) 


>  <Gold.Protein.RotatedWaterAtoms>  (189) 


>  <Gold.Version>  (189) 
5.3.0

>  <PLP.Chemscore.CHOScore>  (189) 


>  <PLP.Chemscore.Hbond>  (189) 


>  <PLP.Chemscore.Internal.Correction>  (189) 


>  <PLP.Chemscore.Metal>  (189) 


>  <PLP.Fitness>  (189) 


>  <PLP.PLP>  (189) 


>  <PLP.ligand.clash>  (189) 


>  <PLP.ligand.torsion>  (189) 


>  <PLP.part.buried>  (189) 


>  <PLP.part.hbond>  (189) 


>  <PLP.part.metal>  (189) 


>  <PLP.part.nonpolar>  (189) 


>  <PLP.part.repulsive>  (189) 


>  <Version>  (189) 


$$$$
189|Compound_148|Compounds_3D_F|sdf|28|dock5|1
     RDKit          3D

 13 12  0  0  0  0  0  0  0  0999 V2000
  -11.1984  -19.4278   12.2444 O   0  0  0  0  0  0  0  0  0  0  0  0
  -10.7913  -18.1932   11.8951 C   0  0  0  0  0  0  0  0  0  0  0  0
  -11.1844  -17.2050   12.4970 O   0  0  0  0  0  0  0  0  0  0  0  0
   -9.8915  -18.1595   10.6734 C   0  0  0  0  0  0  0  0  0  0  0  0
  -10.4804  -17.2995    9.6859 O   0  0  0  0  0  0  0  0  0  0  0  0
   -8.4992  -17.6301   11.0171 C   0  0  0  0  0  0  0  0  0  0  0  0
   -8.5591  -16.2852   11.5690 N   0  0  0  0  0  0  0  0  0  0  0  0
   -7.5184  -15.3869   11.4207 C   0  0  0  0  0  0  0  0  0  0  0  0
   -6.4761  -15.6556   10.8281 O   0  0  0  0  0  0  0  0  0  0  0  0
   -7.7925  -14.0184   12.0416 C   0  0  0  0  0  0  0  0  0  0  0  0
   -6.6591  -13.1011   11.8146 N   0  0  0  0  0  0  0  0  0  0  0  0
   -6.9953  -11.7168   12.1549 C   0  0  0  0  0  0  0  0  0  0  0  0
   -5.5004  -13.5390   12.5951 C   0  0  0  0  0  0  0  0  0  0  0  0
  1  2  1  0
  2  3  2  0
  2  4  1  0
  4  5  1  0
  4  6  1  0
  6  7  1  0
  7  8  1  0
  8  9  2  0
  8 10  1  0
 10 11  1  0
 11 12  1  0
 11 13  1  0
M  END
>  <Gold.Gold.Protein.RotatedWaterAtoms>  (190) 


>  <Gold.Id.Protein>  (190) 


>  <Gold.PLP.Chemscore.CHOScore>  (190) 
0.0000

>  <Gold.PLP.Chemscore.Hbond>  (190) 
2.0000

>  <Gold.PLP.Chemscore.Internal.Correction>  (190) 
0.0193

>  <Gold.PLP.Chemscore.Metal>  (190) 
0.0000

>  <Gold.PLP.Fitness>  (190) 
35.7272

>  <Gold.PLP.PLP>  (190) 
-30.2957

>  <Gold.PLP.ligand.clash>  (190) 
0.0000

>  <Gold.PLP.ligand.torsion>  (190) 
0.2939

>  <Gold.PLP.part.buried>  (190) 
-6.9423

>  <Gold.PLP.part.hbond>  (190) 
-3.0387

>  <Gold.PLP.part.metal>  (190) 
0.0000

>  <Gold.PLP.part.nonpolar>  (190) 
-20.0807

>  <Gold.PLP.part.repulsive>  (190) 
0.3256

>  <Gold.Protein.RotatedAtoms>  (190) 


>  <Gold.Protein.RotatedTorsions>  (190) 


>  <Gold.Protein.RotatedWaterAtoms>  (190) 


>  <Gold.Version>  (190) 
5.3.0

>  <PLP.Chemscore.CHOScore>  (190) 


>  <PLP.Chemscore.Hbond>  (190) 


>  <PLP.Chemscore.Internal.Correction>  (190) 


>  <PLP.Chemscore.Metal>  (190) 


>  <PLP.Fitness>  (190) 


>  <PLP.PLP>  (190) 


>  <PLP.ligand.clash>  (190) 


>  <PLP.ligand.torsion>  (190) 


>  <PLP.part.buried>  (190) 


>  <PLP.part.hbond>  (190) 


>  <PLP.part.metal>  (190) 


>  <PLP.part.nonpolar>  (190) 


>  <PLP.part.repulsive>  (190) 


>  <Version>  (190) 


$$$$
190|Compound_148|Compounds_3D_F|sdf|28|dock6|1
     RDKit          3D

 13 12  0  0  0  0  0  0  0  0999 V2000
   -9.3374  -14.1722   10.4661 O   0  0  0  0  0  0  0  0  0  0  0  0
   -8.5268  -15.2356   10.6214 C   0  0  0  0  0  0  0  0  0  0  0  0
   -7.6281  -15.4657    9.8259 O   0  0  0  0  0  0  0  0  0  0  0  0
   -8.8870  -16.1232   11.7985 C   0  0  0  0  0  0  0  0  0  0  0  0
   -9.9880  -15.5327   12.5060 O   0  0  0  0  0  0  0  0  0  0  0  0
   -9.2931  -17.5241   11.3405 C   0  0  0  0  0  0  0  0  0  0  0  0
  -10.7309  -17.6267   11.1427 N   0  0  0  0  0  0  0  0  0  0  0  0
  -11.5076  -18.5111   11.8684 C   0  0  0  0  0  0  0  0  0  0  0  0
  -11.0476  -19.2722   12.7163 O   0  0  0  0  0  0  0  0  0  0  0  0
  -12.9968  -18.4391   11.5363 C   0  0  0  0  0  0  0  0  0  0  0  0
  -13.2583  -18.9515   10.1774 N   0  0  0  0  0  0  0  0  0  0  0  0
  -14.6291  -19.4460   10.0303 C   0  0  0  0  0  0  0  0  0  0  0  0
  -12.9986  -17.9013    9.1910 C   0  0  0  0  0  0  0  0  0  0  0  0
  1  2  1  0
  2  3  2  0
  2  4  1  0
  4  5  1  0
  4  6  1  0
  6  7  1  0
  7  8  1  0
  8  9  2  0
  8 10  1  0
 10 11  1  0
 11 12  1  0
 11 13  1  0
M  END
>  <Gold.Gold.Protein.RotatedWaterAtoms>  (191) 


>  <Gold.Id.Protein>  (191) 


>  <Gold.PLP.Chemscore.CHOScore>  (191) 
0.0000

>  <Gold.PLP.Chemscore.Hbond>  (191) 
3.2256

>  <Gold.PLP.Chemscore.Internal.Correction>  (191) 
0.0193

>  <Gold.PLP.Chemscore.Metal>  (191) 
0.0000

>  <Gold.PLP.Fitness>  (191) 
37.5015

>  <Gold.PLP.PLP>  (191) 
-29.3233

>  <Gold.PLP.ligand.clash>  (191) 
0.0000

>  <Gold.PLP.ligand.torsion>  (191) 
0.7590

>  <Gold.PLP.part.buried>  (191) 
-5.2647

>  <Gold.PLP.part.hbond>  (191) 
-5.7252

>  <Gold.PLP.part.metal>  (191) 
0.0000

>  <Gold.PLP.part.nonpolar>  (191) 
-18.0266

>  <Gold.PLP.part.repulsive>  (191) 
0.1908

>  <Gold.Protein.RotatedAtoms>  (191) 


>  <Gold.Protein.RotatedTorsions>  (191) 


>  <Gold.Protein.RotatedWaterAtoms>  (191) 


>  <Gold.Version>  (191) 
5.3.0

>  <PLP.Chemscore.CHOScore>  (191) 


>  <PLP.Chemscore.Hbond>  (191) 


>  <PLP.Chemscore.Internal.Correction>  (191) 


>  <PLP.Chemscore.Metal>  (191) 


>  <PLP.Fitness>  (191) 


>  <PLP.PLP>  (191) 


>  <PLP.ligand.clash>  (191) 


>  <PLP.ligand.torsion>  (191) 


>  <PLP.part.buried>  (191) 


>  <PLP.part.hbond>  (191) 


>  <PLP.part.metal>  (191) 


>  <PLP.part.nonpolar>  (191) 


>  <PLP.part.repulsive>  (191) 


>  <Version>  (191) 


$$$$
191|Compound_148|Compounds_3D_F|sdf|28|dock7|1
     RDKit          3D

 13 12  0  0  0  0  0  0  0  0999 V2000
  -10.4533  -20.9115   11.6030 O   0  0  0  0  0  0  0  0  0  0  0  0
  -11.0006  -19.9135   12.3215 C   0  0  0  0  0  0  0  0  0  0  0  0
  -11.5455  -20.1324   13.3932 O   0  0  0  0  0  0  0  0  0  0  0  0
  -10.9387  -18.5564   11.6451 C   0  0  0  0  0  0  0  0  0  0  0  0
  -11.5594  -17.5828   12.4986 O   0  0  0  0  0  0  0  0  0  0  0  0
   -9.4955  -18.1272   11.3804 C   0  0  0  0  0  0  0  0  0  0  0  0
   -9.3932  -16.6904   11.1762 N   0  0  0  0  0  0  0  0  0  0  0  0
   -8.1711  -16.0514   11.0745 C   0  0  0  0  0  0  0  0  0  0  0  0
   -7.0951  -16.6390   11.1567 O   0  0  0  0  0  0  0  0  0  0  0  0
   -8.2806  -14.5482   10.8263 C   0  0  0  0  0  0  0  0  0  0  0  0
   -7.8559  -13.7860   12.0164 N   0  0  0  0  0  0  0  0  0  0  0  0
   -6.4488  -14.0222   12.3475 C   0  0  0  0  0  0  0  0  0  0  0  0
   -8.0837  -12.3562   11.7991 C   0  0  0  0  0  0  0  0  0  0  0  0
  1  2  1  0
  2  3  2  0
  2  4  1  0
  4  5  1  0
  4  6  1  0
  6  7  1  0
  7  8  1  0
  8  9  2  0
  8 10  1  0
 10 11  1  0
 11 12  1  0
 11 13  1  0
M  END
>  <Gold.Gold.Protein.RotatedWaterAtoms>  (192) 


>  <Gold.Id.Protein>  (192) 


>  <Gold.PLP.Chemscore.CHOScore>  (192) 
0.0000

>  <Gold.PLP.Chemscore.Hbond>  (192) 
2.8500

>  <Gold.PLP.Chemscore.Internal.Correction>  (192) 
0.0193

>  <Gold.PLP.Chemscore.Metal>  (192) 
0.0000

>  <Gold.PLP.Fitness>  (192) 
36.7623

>  <Gold.PLP.PLP>  (192) 
-28.8681

>  <Gold.PLP.ligand.clash>  (192) 
0.0000

>  <Gold.PLP.ligand.torsion>  (192) 
0.3376

>  <Gold.PLP.part.buried>  (192) 
-6.6882

>  <Gold.PLP.part.hbond>  (192) 
-4.0000

>  <Gold.PLP.part.metal>  (192) 
0.0000

>  <Gold.PLP.part.nonpolar>  (192) 
-18.3622

>  <Gold.PLP.part.repulsive>  (192) 
0.1671

>  <Gold.Protein.RotatedAtoms>  (192) 


>  <Gold.Protein.RotatedTorsions>  (192) 


>  <Gold.Protein.RotatedWaterAtoms>  (192) 


>  <Gold.Version>  (192) 
5.3.0

>  <PLP.Chemscore.CHOScore>  (192) 


>  <PLP.Chemscore.Hbond>  (192) 


>  <PLP.Chemscore.Internal.Correction>  (192) 


>  <PLP.Chemscore.Metal>  (192) 


>  <PLP.Fitness>  (192) 


>  <PLP.PLP>  (192) 


>  <PLP.ligand.clash>  (192) 


>  <PLP.ligand.torsion>  (192) 


>  <PLP.part.buried>  (192) 


>  <PLP.part.hbond>  (192) 


>  <PLP.part.metal>  (192) 


>  <PLP.part.nonpolar>  (192) 


>  <PLP.part.repulsive>  (192) 


>  <Version>  (192) 


$$$$
192|Compound_148|Compounds_3D_F|sdf|28|dock8|1
     RDKit          3D

 13 12  0  0  0  0  0  0  0  0999 V2000
  -11.2329  -17.2789   12.5019 O   0  0  0  0  0  0  0  0  0  0  0  0
  -10.9132  -18.4326   11.8864 C   0  0  0  0  0  0  0  0  0  0  0  0
  -11.2662  -19.5101   12.3421 O   0  0  0  0  0  0  0  0  0  0  0  0
  -10.0362  -18.2588   10.6601 C   0  0  0  0  0  0  0  0  0  0  0  0
  -10.6887  -17.3653    9.7449 O   0  0  0  0  0  0  0  0  0  0  0  0
   -8.6710  -17.6757   11.0253 C   0  0  0  0  0  0  0  0  0  0  0  0
   -8.7937  -16.3446   11.5996 N   0  0  0  0  0  0  0  0  0  0  0  0
   -8.0850  -15.2659   11.1033 C   0  0  0  0  0  0  0  0  0  0  0  0
   -7.3029  -15.3507   10.1595 O   0  0  0  0  0  0  0  0  0  0  0  0
   -8.3816  -13.9508   11.8216 C   0  0  0  0  0  0  0  0  0  0  0  0
   -7.2816  -12.9862   11.6285 N   0  0  0  0  0  0  0  0  0  0  0  0
   -7.7042  -11.6095   11.8956 C   0  0  0  0  0  0  0  0  0  0  0  0
   -6.1537  -13.3381   12.4930 C   0  0  0  0  0  0  0  0  0  0  0  0
  1  2  1  0
  2  3  2  0
  2  4  1  0
  4  5  1  0
  4  6  1  0
  6  7  1  0
  7  8  1  0
  8  9  2  0
  8 10  1  0
 10 11  1  0
 11 12  1  0
 11 13  1  0
M  END
>  <Gold.Gold.Protein.RotatedWaterAtoms>  (193) 


>  <Gold.Id.Protein>  (193) 


>  <Gold.PLP.Chemscore.CHOScore>  (193) 
0.0000

>  <Gold.PLP.Chemscore.Hbond>  (193) 
2.0000

>  <Gold.PLP.Chemscore.Internal.Correction>  (193) 
0.0193

>  <Gold.PLP.Chemscore.Metal>  (193) 
0.0000

>  <Gold.PLP.Fitness>  (193) 
35.1472

>  <Gold.PLP.PLP>  (193) 
-30.2606

>  <Gold.PLP.ligand.clash>  (193) 
0.0000

>  <Gold.PLP.ligand.torsion>  (193) 
0.5664

>  <Gold.PLP.part.buried>  (193) 
-7.3450

>  <Gold.PLP.part.hbond>  (193) 
-3.3073

>  <Gold.PLP.part.metal>  (193) 
0.0000

>  <Gold.PLP.part.nonpolar>  (193) 
-19.8106

>  <Gold.PLP.part.repulsive>  (193) 
0.2652

>  <Gold.Protein.RotatedAtoms>  (193) 


>  <Gold.Protein.RotatedTorsions>  (193) 


>  <Gold.Protein.RotatedWaterAtoms>  (193) 


>  <Gold.Version>  (193) 
5.3.0

>  <PLP.Chemscore.CHOScore>  (193) 


>  <PLP.Chemscore.Hbond>  (193) 


>  <PLP.Chemscore.Internal.Correction>  (193) 


>  <PLP.Chemscore.Metal>  (193) 


>  <PLP.Fitness>  (193) 


>  <PLP.PLP>  (193) 


>  <PLP.ligand.clash>  (193) 


>  <PLP.ligand.torsion>  (193) 


>  <PLP.part.buried>  (193) 


>  <PLP.part.hbond>  (193) 


>  <PLP.part.metal>  (193) 


>  <PLP.part.nonpolar>  (193) 


>  <PLP.part.repulsive>  (193) 


>  <Version>  (193) 


$$$$
193|Compound_148|Compounds_3D_F|sdf|28|dock9|1
     RDKit          3D

 13 12  0  0  0  0  0  0  0  0999 V2000
  -12.9894  -19.3767   11.0329 O   0  0  0  0  0  0  0  0  0  0  0  0
  -11.8328  -18.9680   11.5870 C   0  0  0  0  0  0  0  0  0  0  0  0
  -11.7388  -18.7887   12.7921 O   0  0  0  0  0  0  0  0  0  0  0  0
  -10.7287  -18.6900   10.5835 C   0  0  0  0  0  0  0  0  0  0  0  0
  -11.1763  -17.6781    9.6685 O   0  0  0  0  0  0  0  0  0  0  0  0
   -9.4553  -18.1993   11.2726 C   0  0  0  0  0  0  0  0  0  0  0  0
   -9.3422  -16.7498   11.2190 N   0  0  0  0  0  0  0  0  0  0  0  0
   -8.1201  -16.1082   11.3008 C   0  0  0  0  0  0  0  0  0  0  0  0
   -7.0538  -16.7046   11.4320 O   0  0  0  0  0  0  0  0  0  0  0  0
   -8.2138  -14.5876   11.1890 C   0  0  0  0  0  0  0  0  0  0  0  0
   -7.5376  -13.9337   12.3260 N   0  0  0  0  0  0  0  0  0  0  0  0
   -6.1208  -14.2964   12.4058 C   0  0  0  0  0  0  0  0  0  0  0  0
   -7.6748  -12.4802   12.2176 C   0  0  0  0  0  0  0  0  0  0  0  0
  1  2  1  0
  2  3  2  0
  2  4  1  0
  4  5  1  0
  4  6  1  0
  6  7  1  0
  7  8  1  0
  8  9  2  0
  8 10  1  0
 10 11  1  0
 11 12  1  0
 11 13  1  0
M  END
>  <Gold.Gold.Protein.RotatedWaterAtoms>  (194) 


>  <Gold.Id.Protein>  (194) 


>  <Gold.PLP.Chemscore.CHOScore>  (194) 
0.0000

>  <Gold.PLP.Chemscore.Hbond>  (194) 
2.7940

>  <Gold.PLP.Chemscore.Internal.Correction>  (194) 
0.0193

>  <Gold.PLP.Chemscore.Metal>  (194) 
0.0000

>  <Gold.PLP.Fitness>  (194) 
33.0957

>  <Gold.PLP.PLP>  (194) 
-26.2053

>  <Gold.PLP.ligand.clash>  (194) 
0.0000

>  <Gold.PLP.ligand.torsion>  (194) 
0.7555

>  <Gold.PLP.part.buried>  (194) 
-6.6732

>  <Gold.PLP.part.hbond>  (194) 
-3.0000

>  <Gold.PLP.part.metal>  (194) 
0.0000

>  <Gold.PLP.part.nonpolar>  (194) 
-16.9339

>  <Gold.PLP.part.repulsive>  (194) 
0.1939

>  <Gold.Protein.RotatedAtoms>  (194) 


>  <Gold.Protein.RotatedTorsions>  (194) 


>  <Gold.Protein.RotatedWaterAtoms>  (194) 


>  <Gold.Version>  (194) 
5.3.0

>  <PLP.Chemscore.CHOScore>  (194) 


>  <PLP.Chemscore.Hbond>  (194) 


>  <PLP.Chemscore.Internal.Correction>  (194) 


>  <PLP.Chemscore.Metal>  (194) 


>  <PLP.Fitness>  (194) 


>  <PLP.PLP>  (194) 


>  <PLP.ligand.clash>  (194) 


>  <PLP.ligand.torsion>  (194) 


>  <PLP.part.buried>  (194) 


>  <PLP.part.hbond>  (194) 


>  <PLP.part.metal>  (194) 


>  <PLP.part.nonpolar>  (194) 


>  <PLP.part.repulsive>  (194) 


>  <Version>  (194) 


$$$$
194|Compound_153|Compounds_3D_F|sdf|29|dock1|1
     RDKit          3D

 11 10  0  0  0  0  0  0  0  0999 V2000
   -4.5411  -15.5188   11.2376 N   0  0  0  0  0  0  0  0  0  0  0  0
   -5.4230  -15.3095   12.3261 C   0  0  0  0  0  0  0  0  0  0  0  0
   -6.0775  -16.2167   12.8249 O   0  0  0  0  0  0  0  0  0  0  0  0
   -5.5075  -13.8624   12.8071 C   0  0  0  0  0  0  0  0  0  0  0  0
   -6.1565  -13.0042   11.7978 N   0  0  0  0  0  0  0  0  0  0  0  0
   -7.5627  -13.3567   11.5903 C   0  0  0  0  0  0  0  0  0  0  0  0
   -6.0495  -11.5976   12.1946 C   0  0  0  0  0  0  0  0  0  0  0  0
   -4.1090  -17.0141   10.6238 S   0  0  0  0  0  0  0  0  0  0  0  0
   -2.6601  -17.0241   10.5970 O   0  0  0  0  0  0  0  0  0  0  0  0
   -4.8457  -18.0539   11.3072 O   0  0  0  0  0  0  0  0  0  0  0  0
   -4.6744  -16.9027    8.9400 C   0  0  0  0  0  0  0  0  0  0  0  0
  1  2  1  0
  1  8  1  0
  2  3  2  0
  2  4  1  0
  4  5  1  0
  5  6  1  0
  5  7  1  0
  8  9  2  0
  8 10  2  0
  8 11  1  0
M  END
>  <Gold.Gold.Protein.RotatedWaterAtoms>  (195) 


>  <Gold.Id.Protein>  (195) 


>  <Gold.PLP.Chemscore.CHOScore>  (195) 
0.0000

>  <Gold.PLP.Chemscore.Hbond>  (195) 
2.0000

>  <Gold.PLP.Chemscore.Internal.Correction>  (195) 
1.0003

>  <Gold.PLP.Chemscore.Metal>  (195) 
0.0000

>  <Gold.PLP.Fitness>  (195) 
32.3910

>  <Gold.PLP.PLP>  (195) 
-26.6175

>  <Gold.PLP.ligand.clash>  (195) 
0.0000

>  <Gold.PLP.ligand.torsion>  (195) 
0.6134

>  <Gold.PLP.part.buried>  (195) 
-6.7597

>  <Gold.PLP.part.hbond>  (195) 
-2.7627

>  <Gold.PLP.part.metal>  (195) 
0.0000

>  <Gold.PLP.part.nonpolar>  (195) 
-18.1724

>  <Gold.PLP.part.repulsive>  (195) 
0.5558

>  <Gold.Protein.RotatedAtoms>  (195) 


>  <Gold.Protein.RotatedTorsions>  (195) 


>  <Gold.Protein.RotatedWaterAtoms>  (195) 


>  <Gold.Version>  (195) 
5.3.0

>  <PLP.Chemscore.CHOScore>  (195) 


>  <PLP.Chemscore.Hbond>  (195) 


>  <PLP.Chemscore.Internal.Correction>  (195) 


>  <PLP.Chemscore.Metal>  (195) 


>  <PLP.Fitness>  (195) 


>  <PLP.PLP>  (195) 


>  <PLP.ligand.clash>  (195) 


>  <PLP.ligand.torsion>  (195) 


>  <PLP.part.buried>  (195) 


>  <PLP.part.hbond>  (195) 


>  <PLP.part.metal>  (195) 


>  <PLP.part.nonpolar>  (195) 


>  <PLP.part.repulsive>  (195) 


>  <Version>  (195) 


$$$$
195|Compound_153|Compounds_3D_F|sdf|29|dock2|1
     RDKit          3D

 11 10  0  0  0  0  0  0  0  0999 V2000
   -4.5132  -15.5147   11.3683 N   0  0  0  0  0  0  0  0  0  0  0  0
   -5.5125  -15.1860   12.3167 C   0  0  0  0  0  0  0  0  0  0  0  0
   -6.2613  -16.0262   12.8000 O   0  0  0  0  0  0  0  0  0  0  0  0
   -5.5941  -13.7014   12.6662 C   0  0  0  0  0  0  0  0  0  0  0  0
   -6.6464  -13.0280   11.8813 N   0  0  0  0  0  0  0  0  0  0  0  0
   -7.9720  -13.6023   12.1218 C   0  0  0  0  0  0  0  0  0  0  0  0
   -6.6611  -11.5958   12.1906 C   0  0  0  0  0  0  0  0  0  0  0  0
   -4.0728  -17.0697   10.9352 S   0  0  0  0  0  0  0  0  0  0  0  0
   -2.6627  -17.0019   10.6078 O   0  0  0  0  0  0  0  0  0  0  0  0
   -4.5614  -18.0080   11.9209 O   0  0  0  0  0  0  0  0  0  0  0  0
   -4.9650  -17.2988    9.4125 C   0  0  0  0  0  0  0  0  0  0  0  0
  1  2  1  0
  1  8  1  0
  2  3  2  0
  2  4  1  0
  4  5  1  0
  5  6  1  0
  5  7  1  0
  8  9  2  0
  8 10  2  0
  8 11  1  0
M  END
>  <Gold.Gold.Protein.RotatedWaterAtoms>  (196) 


>  <Gold.Id.Protein>  (196) 


>  <Gold.PLP.Chemscore.CHOScore>  (196) 
0.0000

>  <Gold.PLP.Chemscore.Hbond>  (196) 
2.0000

>  <Gold.PLP.Chemscore.Internal.Correction>  (196) 
1.0003

>  <Gold.PLP.Chemscore.Metal>  (196) 
0.0000

>  <Gold.PLP.Fitness>  (196) 
32.4169

>  <Gold.PLP.PLP>  (196) 
-27.0575

>  <Gold.PLP.ligand.clash>  (196) 
0.0000

>  <Gold.PLP.ligand.torsion>  (196) 
0.8205

>  <Gold.PLP.part.buried>  (196) 
-7.3657

>  <Gold.PLP.part.hbond>  (196) 
-2.0000

>  <Gold.PLP.part.metal>  (196) 
0.0000

>  <Gold.PLP.part.nonpolar>  (196) 
-18.1771

>  <Gold.PLP.part.repulsive>  (196) 
0.4969

>  <Gold.Protein.RotatedAtoms>  (196) 


>  <Gold.Protein.RotatedTorsions>  (196) 


>  <Gold.Protein.RotatedWaterAtoms>  (196) 


>  <Gold.Version>  (196) 
5.3.0

>  <PLP.Chemscore.CHOScore>  (196) 


>  <PLP.Chemscore.Hbond>  (196) 


>  <PLP.Chemscore.Internal.Correction>  (196) 


>  <PLP.Chemscore.Metal>  (196) 


>  <PLP.Fitness>  (196) 


>  <PLP.PLP>  (196) 


>  <PLP.ligand.clash>  (196) 


>  <PLP.ligand.torsion>  (196) 


>  <PLP.part.buried>  (196) 


>  <PLP.part.hbond>  (196) 


>  <PLP.part.metal>  (196) 


>  <PLP.part.nonpolar>  (196) 


>  <PLP.part.repulsive>  (196) 


>  <Version>  (196) 


$$$$
196|Compound_153|Compounds_3D_F|sdf|29|dock3|1
     RDKit          3D

 11 10  0  0  0  0  0  0  0  0999 V2000
   -4.5633  -15.4504   11.4577 N   0  0  0  0  0  0  0  0  0  0  0  0
   -5.5995  -15.1438   12.3734 C   0  0  0  0  0  0  0  0  0  0  0  0
   -6.3796  -15.9910   12.7905 O   0  0  0  0  0  0  0  0  0  0  0  0
   -5.6777  -13.6726   12.7760 C   0  0  0  0  0  0  0  0  0  0  0  0
   -6.4020  -12.8822   11.7625 N   0  0  0  0  0  0  0  0  0  0  0  0
   -7.7690  -13.3650   11.5544 C   0  0  0  0  0  0  0  0  0  0  0  0
   -6.4273  -11.4704   12.1541 C   0  0  0  0  0  0  0  0  0  0  0  0
   -4.1237  -16.9940   10.9845 S   0  0  0  0  0  0  0  0  0  0  0  0
   -5.1906  -17.4590   10.1210 O   0  0  0  0  0  0  0  0  0  0  0  0
   -2.7502  -16.9936   10.5326 O   0  0  0  0  0  0  0  0  0  0  0  0
   -4.2395  -17.8988   12.5126 C   0  0  0  0  0  0  0  0  0  0  0  0
  1  2  1  0
  1  8  1  0
  2  3  2  0
  2  4  1  0
  4  5  1  0
  5  6  1  0
  5  7  1  0
  8  9  2  0
  8 10  2  0
  8 11  1  0
M  END
>  <Gold.Gold.Protein.RotatedWaterAtoms>  (197) 


>  <Gold.Id.Protein>  (197) 


>  <Gold.PLP.Chemscore.CHOScore>  (197) 
0.0000

>  <Gold.PLP.Chemscore.Hbond>  (197) 
2.0000

>  <Gold.PLP.Chemscore.Internal.Correction>  (197) 
0.9995

>  <Gold.PLP.Chemscore.Metal>  (197) 
0.0000

>  <Gold.PLP.Fitness>  (197) 
33.6339

>  <Gold.PLP.PLP>  (197) 
-28.3887

>  <Gold.PLP.ligand.clash>  (197) 
0.0000

>  <Gold.PLP.ligand.torsion>  (197) 
0.8771

>  <Gold.PLP.part.buried>  (197) 
-6.8680

>  <Gold.PLP.part.hbond>  (197) 
-2.6728

>  <Gold.PLP.part.metal>  (197) 
0.0000

>  <Gold.PLP.part.nonpolar>  (197) 
-20.0946

>  <Gold.PLP.part.repulsive>  (197) 
0.7493

>  <Gold.Protein.RotatedAtoms>  (197) 


>  <Gold.Protein.RotatedTorsions>  (197) 


>  <Gold.Protein.RotatedWaterAtoms>  (197) 


>  <Gold.Version>  (197) 
5.3.0

>  <PLP.Chemscore.CHOScore>  (197) 


>  <PLP.Chemscore.Hbond>  (197) 


>  <PLP.Chemscore.Internal.Correction>  (197) 


>  <PLP.Chemscore.Metal>  (197) 


>  <PLP.Fitness>  (197) 


>  <PLP.PLP>  (197) 


>  <PLP.ligand.clash>  (197) 


>  <PLP.ligand.torsion>  (197) 


>  <PLP.part.buried>  (197) 


>  <PLP.part.hbond>  (197) 


>  <PLP.part.metal>  (197) 


>  <PLP.part.nonpolar>  (197) 


>  <PLP.part.repulsive>  (197) 


>  <Version>  (197) 


$$$$
197|Compound_156|Compounds_3D_F|sdf|30|dock1|1
     RDKit          3D

 14 13  0  0  0  0  0  0  0  0999 V2000
   -9.2160  -14.9190    9.6941 O   0  0  0  0  0  0  0  0  0  0  0  0
   -8.2773  -14.7385   10.6415 C   0  0  0  0  0  0  0  0  0  0  0  0
   -7.2844  -14.0569   10.4283 O   0  0  0  0  0  0  0  0  0  0  0  0
   -8.5310  -15.5114   11.9226 C   0  0  0  0  0  0  0  0  0  0  0  0
   -9.7787  -15.0931   12.4987 O   0  0  0  0  0  0  0  0  0  0  0  0
   -8.6015  -17.0158   11.6648 C   0  0  0  0  0  0  0  0  0  0  0  0
   -9.9560  -17.4203   11.3143 N   0  0  0  0  0  0  0  0  0  0  0  0
  -10.3679  -18.7346   11.2670 C   0  0  0  0  0  0  0  0  0  0  0  0
   -9.6468  -19.6881   11.5404 O   0  0  0  0  0  0  0  0  0  0  0  0
  -11.8232  -18.8751   10.8617 C   0  0  0  0  0  0  0  0  0  0  0  0
  -11.9629  -19.1381    9.3602 C   0  0  0  0  0  0  0  0  0  0  0  0
  -13.3613  -19.0483    8.8950 N   0  0  0  0  0  0  0  0  0  0  0  0
  -14.1978  -19.9906    9.6456 C   0  0  0  0  0  0  0  0  0  0  0  0
  -13.9010  -17.6933    9.0406 C   0  0  0  0  0  0  0  0  0  0  0  0
  1  2  1  0
  2  3  2  0
  2  4  1  0
  4  5  1  0
  4  6  1  0
  6  7  1  0
  7  8  1  0
  8  9  2  0
  8 10  1  0
 10 11  1  0
 11 12  1  0
 12 13  1  0
 12 14  1  0
M  END
>  <Gold.Gold.Protein.RotatedWaterAtoms>  (198) 


>  <Gold.Id.Protein>  (198) 


>  <Gold.PLP.Chemscore.CHOScore>  (198) 
0.0000

>  <Gold.PLP.Chemscore.Hbond>  (198) 
3.2728

>  <Gold.PLP.Chemscore.Internal.Correction>  (198) 
0.0388

>  <Gold.PLP.Chemscore.Metal>  (198) 
0.0000

>  <Gold.PLP.Fitness>  (198) 
37.9331

>  <Gold.PLP.PLP>  (198) 
-29.6277

>  <Gold.PLP.ligand.clash>  (198) 
0.0000

>  <Gold.PLP.ligand.torsion>  (198) 
0.7759

>  <Gold.PLP.part.buried>  (198) 
-4.2968

>  <Gold.PLP.part.hbond>  (198) 
-5.9419

>  <Gold.PLP.part.metal>  (198) 
0.0000

>  <Gold.PLP.part.nonpolar>  (198) 
-19.8243

>  <Gold.PLP.part.repulsive>  (198) 
0.2882

>  <Gold.Protein.RotatedAtoms>  (198) 


>  <Gold.Protein.RotatedTorsions>  (198) 


>  <Gold.Protein.RotatedWaterAtoms>  (198) 


>  <Gold.Version>  (198) 
5.3.0

>  <PLP.Chemscore.CHOScore>  (198) 


>  <PLP.Chemscore.Hbond>  (198) 


>  <PLP.Chemscore.Internal.Correction>  (198) 


>  <PLP.Chemscore.Metal>  (198) 


>  <PLP.Fitness>  (198) 


>  <PLP.PLP>  (198) 


>  <PLP.ligand.clash>  (198) 


>  <PLP.ligand.torsion>  (198) 


>  <PLP.part.buried>  (198) 


>  <PLP.part.hbond>  (198) 


>  <PLP.part.metal>  (198) 


>  <PLP.part.nonpolar>  (198) 


>  <PLP.part.repulsive>  (198) 


>  <Version>  (198) 


$$$$
198|Compound_156|Compounds_3D_F|sdf|30|dock2|1
     RDKit          3D

 14 13  0  0  0  0  0  0  0  0999 V2000
   -6.0437  -15.0697    9.3622 O   0  0  0  0  0  0  0  0  0  0  0  0
   -7.1827  -15.7653    9.5370 C   0  0  0  0  0  0  0  0  0  0  0  0
   -7.3941  -16.8005    8.9211 O   0  0  0  0  0  0  0  0  0  0  0  0
   -8.1741  -15.1071   10.4787 C   0  0  0  0  0  0  0  0  0  0  0  0
   -9.3859  -14.8055    9.7688 O   0  0  0  0  0  0  0  0  0  0  0  0
   -8.5208  -16.0194   11.6544 C   0  0  0  0  0  0  0  0  0  0  0  0
   -9.0054  -17.3103   11.1855 N   0  0  0  0  0  0  0  0  0  0  0  0
  -10.1952  -17.8704   11.5980 C   0  0  0  0  0  0  0  0  0  0  0  0
  -10.9734  -17.3286   12.3758 O   0  0  0  0  0  0  0  0  0  0  0  0
  -10.4519  -19.2252   10.9654 C   0  0  0  0  0  0  0  0  0  0  0  0
  -11.5912  -19.1595    9.9451 C   0  0  0  0  0  0  0  0  0  0  0  0
  -12.6478  -18.2042   10.3334 N   0  0  0  0  0  0  0  0  0  0  0  0
  -13.6480  -18.1058    9.2651 C   0  0  0  0  0  0  0  0  0  0  0  0
  -13.3059  -18.5940   11.5839 C   0  0  0  0  0  0  0  0  0  0  0  0
  1  2  1  0
  2  3  2  0
  2  4  1  0
  4  5  1  0
  4  6  1  0
  6  7  1  0
  7  8  1  0
  8  9  2  0
  8 10  1  0
 10 11  1  0
 11 12  1  0
 12 13  1  0
 12 14  1  0
M  END
>  <Gold.Gold.Protein.RotatedWaterAtoms>  (199) 


>  <Gold.Id.Protein>  (199) 


>  <Gold.PLP.Chemscore.CHOScore>  (199) 
0.0000

>  <Gold.PLP.Chemscore.Hbond>  (199) 
3.6960

>  <Gold.PLP.Chemscore.Internal.Correction>  (199) 
0.0388

>  <Gold.PLP.Chemscore.Metal>  (199) 
0.0000

>  <Gold.PLP.Fitness>  (199) 
40.7188

>  <Gold.PLP.PLP>  (199) 
-30.1792

>  <Gold.PLP.ligand.clash>  (199) 
0.0000

>  <Gold.PLP.ligand.torsion>  (199) 
0.2936

>  <Gold.PLP.part.buried>  (199) 
-5.3169

>  <Gold.PLP.part.hbond>  (199) 
-6.2720

>  <Gold.PLP.part.metal>  (199) 
0.0000

>  <Gold.PLP.part.nonpolar>  (199) 
-19.0157

>  <Gold.PLP.part.repulsive>  (199) 
0.1262

>  <Gold.Protein.RotatedAtoms>  (199) 


>  <Gold.Protein.RotatedTorsions>  (199) 


>  <Gold.Protein.RotatedWaterAtoms>  (199) 


>  <Gold.Version>  (199) 
5.3.0

>  <PLP.Chemscore.CHOScore>  (199) 


>  <PLP.Chemscore.Hbond>  (199) 


>  <PLP.Chemscore.Internal.Correction>  (199) 


>  <PLP.Chemscore.Metal>  (199) 


>  <PLP.Fitness>  (199) 


>  <PLP.PLP>  (199) 


>  <PLP.ligand.clash>  (199) 


>  <PLP.ligand.torsion>  (199) 


>  <PLP.part.buried>  (199) 


>  <PLP.part.hbond>  (199) 


>  <PLP.part.metal>  (199) 


>  <PLP.part.nonpolar>  (199) 


>  <PLP.part.repulsive>  (199) 


>  <Version>  (199) 


$$$$
199|Compound_156|Compounds_3D_F|sdf|30|dock3|1
     RDKit          3D

 14 13  0  0  0  0  0  0  0  0999 V2000
   -6.3153  -14.4483   10.3994 O   0  0  0  0  0  0  0  0  0  0  0  0
   -7.3676  -13.9836   11.0982 C   0  0  0  0  0  0  0  0  0  0  0  0
   -7.3326  -12.8899   11.6445 O   0  0  0  0  0  0  0  0  0  0  0  0
   -8.5239  -14.9607   11.2030 C   0  0  0  0  0  0  0  0  0  0  0  0
   -9.0134  -15.2711    9.8886 O   0  0  0  0  0  0  0  0  0  0  0  0
   -8.0969  -16.2641   11.8765 C   0  0  0  0  0  0  0  0  0  0  0  0
   -8.7511  -17.4082   11.2567 N   0  0  0  0  0  0  0  0  0  0  0  0
  -10.0321  -17.8108   11.5673 C   0  0  0  0  0  0  0  0  0  0  0  0
  -10.7550  -17.2329   12.3720 O   0  0  0  0  0  0  0  0  0  0  0  0
  -10.4632  -19.0375   10.7856 C   0  0  0  0  0  0  0  0  0  0  0  0
  -11.5703  -18.7018    9.7833 C   0  0  0  0  0  0  0  0  0  0  0  0
  -12.9060  -19.1253   10.2484 N   0  0  0  0  0  0  0  0  0  0  0  0
  -13.2045  -18.5011   11.5417 C   0  0  0  0  0  0  0  0  0  0  0  0
  -13.9560  -18.7801    9.2858 C   0  0  0  0  0  0  0  0  0  0  0  0
  1  2  1  0
  2  3  2  0
  2  4  1  0
  4  5  1  0
  4  6  1  0
  6  7  1  0
  7  8  1  0
  8  9  2  0
  8 10  1  0
 10 11  1  0
 11 12  1  0
 12 13  1  0
 12 14  1  0
M  END
>  <Gold.Gold.Protein.RotatedWaterAtoms>  (200) 


>  <Gold.Id.Protein>  (200) 


>  <Gold.PLP.Chemscore.CHOScore>  (200) 
0.0000

>  <Gold.PLP.Chemscore.Hbond>  (200) 
3.1638

>  <Gold.PLP.Chemscore.Internal.Correction>  (200) 
0.0388

>  <Gold.PLP.Chemscore.Metal>  (200) 
0.0000

>  <Gold.PLP.Fitness>  (200) 
38.4066

>  <Gold.PLP.PLP>  (200) 
-30.9849

>  <Gold.PLP.ligand.clash>  (200) 
0.0000

>  <Gold.PLP.ligand.torsion>  (200) 
1.0542

>  <Gold.PLP.part.buried>  (200) 
-6.4441

>  <Gold.PLP.part.hbond>  (200) 
-5.3093

>  <Gold.PLP.part.metal>  (200) 
0.0000

>  <Gold.PLP.part.nonpolar>  (200) 
-20.4414

>  <Gold.PLP.part.repulsive>  (200) 
0.2448

>  <Gold.Protein.RotatedAtoms>  (200) 


>  <Gold.Protein.RotatedTorsions>  (200) 


>  <Gold.Protein.RotatedWaterAtoms>  (200) 


>  <Gold.Version>  (200) 
5.3.0

>  <PLP.Chemscore.CHOScore>  (200) 


>  <PLP.Chemscore.Hbond>  (200) 


>  <PLP.Chemscore.Internal.Correction>  (200) 


>  <PLP.Chemscore.Metal>  (200) 


>  <PLP.Fitness>  (200) 


>  <PLP.PLP>  (200) 


>  <PLP.ligand.clash>  (200) 


>  <PLP.ligand.torsion>  (200) 


>  <PLP.part.buried>  (200) 


>  <PLP.part.hbond>  (200) 


>  <PLP.part.metal>  (200) 


>  <PLP.part.nonpolar>  (200) 


>  <PLP.part.repulsive>  (200) 


>  <Version>  (200) 


$$$$
200|Compound_156|Compounds_3D_F|sdf|30|dock4|1
     RDKit          3D

 14 13  0  0  0  0  0  0  0  0999 V2000
   -5.7373  -14.9208   10.9855 O   0  0  0  0  0  0  0  0  0  0  0  0
   -6.5793  -15.1337    9.9573 C   0  0  0  0  0  0  0  0  0  0  0  0
   -6.1808  -15.1329    8.8010 O   0  0  0  0  0  0  0  0  0  0  0  0
   -8.0332  -15.2831   10.3657 C   0  0  0  0  0  0  0  0  0  0  0  0
   -8.8448  -15.4771    9.1964 O   0  0  0  0  0  0  0  0  0  0  0  0
   -8.2344  -16.4800   11.2938 C   0  0  0  0  0  0  0  0  0  0  0  0
   -9.6103  -16.9545   11.2397 N   0  0  0  0  0  0  0  0  0  0  0  0
   -9.9508  -18.2830   11.1037 C   0  0  0  0  0  0  0  0  0  0  0  0
   -9.1344  -19.1961   11.0427 O   0  0  0  0  0  0  0  0  0  0  0  0
  -11.4520  -18.4986   11.0616 C   0  0  0  0  0  0  0  0  0  0  0  0
  -11.8704  -19.2782    9.8125 C   0  0  0  0  0  0  0  0  0  0  0  0
  -13.3366  -19.3673    9.6625 N   0  0  0  0  0  0  0  0  0  0  0  0
  -13.8882  -18.0420    9.3612 C   0  0  0  0  0  0  0  0  0  0  0  0
  -13.7229  -20.3084    8.6072 C   0  0  0  0  0  0  0  0  0  0  0  0
  1  2  1  0
  2  3  2  0
  2  4  1  0
  4  5  1  0
  4  6  1  0
  6  7  1  0
  7  8  1  0
  8  9  2  0
  8 10  1  0
 10 11  1  0
 11 12  1  0
 12 13  1  0
 12 14  1  0
M  END
>  <Gold.Gold.Protein.RotatedWaterAtoms>  (201) 


>  <Gold.Id.Protein>  (201) 


>  <Gold.PLP.Chemscore.CHOScore>  (201) 
0.0000

>  <Gold.PLP.Chemscore.Hbond>  (201) 
3.9913

>  <Gold.PLP.Chemscore.Internal.Correction>  (201) 
0.0388

>  <Gold.PLP.Chemscore.Metal>  (201) 
0.0000

>  <Gold.PLP.Fitness>  (201) 
39.3308

>  <Gold.PLP.PLP>  (201) 
-28.1596

>  <Gold.PLP.ligand.clash>  (201) 
0.0000

>  <Gold.PLP.ligand.torsion>  (201) 
0.4207

>  <Gold.PLP.part.buried>  (201) 
-5.6252

>  <Gold.PLP.part.hbond>  (201) 
-4.0000

>  <Gold.PLP.part.metal>  (201) 
0.0000

>  <Gold.PLP.part.nonpolar>  (201) 
-19.3255

>  <Gold.PLP.part.repulsive>  (201) 
0.2758

>  <Gold.Protein.RotatedAtoms>  (201) 


>  <Gold.Protein.RotatedTorsions>  (201) 


>  <Gold.Protein.RotatedWaterAtoms>  (201) 


>  <Gold.Version>  (201) 
5.3.0

>  <PLP.Chemscore.CHOScore>  (201) 


>  <PLP.Chemscore.Hbond>  (201) 


>  <PLP.Chemscore.Internal.Correction>  (201) 


>  <PLP.Chemscore.Metal>  (201) 


>  <PLP.Fitness>  (201) 


>  <PLP.PLP>  (201) 


>  <PLP.ligand.clash>  (201) 


>  <PLP.ligand.torsion>  (201) 


>  <PLP.part.buried>  (201) 


>  <PLP.part.hbond>  (201) 


>  <PLP.part.metal>  (201) 


>  <PLP.part.nonpolar>  (201) 


>  <PLP.part.repulsive>  (201) 


>  <Version>  (201) 


$$$$
201|Compound_156|Compounds_3D_F|sdf|30|dock5|1
     RDKit          3D

 14 13  0  0  0  0  0  0  0  0999 V2000
   -5.9866  -14.8827    9.6971 O   0  0  0  0  0  0  0  0  0  0  0  0
   -6.7350  -14.9935   10.8103 C   0  0  0  0  0  0  0  0  0  0  0  0
   -6.2484  -14.8290   11.9202 O   0  0  0  0  0  0  0  0  0  0  0  0
   -8.1708  -15.4127   10.5543 C   0  0  0  0  0  0  0  0  0  0  0  0
   -8.4917  -15.2119    9.1685 O   0  0  0  0  0  0  0  0  0  0  0  0
   -8.3925  -16.8868   10.8897 C   0  0  0  0  0  0  0  0  0  0  0  0
   -9.8138  -17.1906   10.9835 N   0  0  0  0  0  0  0  0  0  0  0  0
  -10.3101  -18.4698   11.1135 C   0  0  0  0  0  0  0  0  0  0  0  0
   -9.6075  -19.4720   11.1902 O   0  0  0  0  0  0  0  0  0  0  0  0
  -11.8256  -18.5034   11.1758 C   0  0  0  0  0  0  0  0  0  0  0  0
  -12.4050  -19.5016   10.1703 C   0  0  0  0  0  0  0  0  0  0  0  0
  -13.8092  -19.2074    9.8218 N   0  0  0  0  0  0  0  0  0  0  0  0
  -13.9017  -17.8808    9.2030 C   0  0  0  0  0  0  0  0  0  0  0  0
  -14.3694  -20.2107    8.9118 C   0  0  0  0  0  0  0  0  0  0  0  0
  1  2  1  0
  2  3  2  0
  2  4  1  0
  4  5  1  0
  4  6  1  0
  6  7  1  0
  7  8  1  0
  8  9  2  0
  8 10  1  0
 10 11  1  0
 11 12  1  0
 12 13  1  0
 12 14  1  0
M  END
>  <Gold.Gold.Protein.RotatedWaterAtoms>  (202) 


>  <Gold.Id.Protein>  (202) 


>  <Gold.PLP.Chemscore.CHOScore>  (202) 
0.0000

>  <Gold.PLP.Chemscore.Hbond>  (202) 
2.9913

>  <Gold.PLP.Chemscore.Internal.Correction>  (202) 
0.0388

>  <Gold.PLP.Chemscore.Metal>  (202) 
0.0000

>  <Gold.PLP.Fitness>  (202) 
36.9510

>  <Gold.PLP.PLP>  (202) 
-29.3290

>  <Gold.PLP.ligand.clash>  (202) 
0.0000

>  <Gold.PLP.ligand.torsion>  (202) 
0.6952

>  <Gold.PLP.part.buried>  (202) 
-6.4384

>  <Gold.PLP.part.hbond>  (202) 
-4.0000

>  <Gold.PLP.part.metal>  (202) 
0.0000

>  <Gold.PLP.part.nonpolar>  (202) 
-19.3268

>  <Gold.PLP.part.repulsive>  (202) 
0.2207

>  <Gold.Protein.RotatedAtoms>  (202) 


>  <Gold.Protein.RotatedTorsions>  (202) 


>  <Gold.Protein.RotatedWaterAtoms>  (202) 


>  <Gold.Version>  (202) 
5.3.0

>  <PLP.Chemscore.CHOScore>  (202) 


>  <PLP.Chemscore.Hbond>  (202) 


>  <PLP.Chemscore.Internal.Correction>  (202) 


>  <PLP.Chemscore.Metal>  (202) 


>  <PLP.Fitness>  (202) 


>  <PLP.PLP>  (202) 


>  <PLP.ligand.clash>  (202) 


>  <PLP.ligand.torsion>  (202) 


>  <PLP.part.buried>  (202) 


>  <PLP.part.hbond>  (202) 


>  <PLP.part.metal>  (202) 


>  <PLP.part.nonpolar>  (202) 


>  <PLP.part.repulsive>  (202) 


>  <Version>  (202) 


$$$$
202|Compound_156|Compounds_3D_F|sdf|30|dock6|1
     RDKit          3D

 14 13  0  0  0  0  0  0  0  0999 V2000
   -8.3702  -12.8012   12.2014 O   0  0  0  0  0  0  0  0  0  0  0  0
   -7.8516  -13.8332   11.5103 C   0  0  0  0  0  0  0  0  0  0  0  0
   -6.7333  -13.7691   11.0193 O   0  0  0  0  0  0  0  0  0  0  0  0
   -8.8001  -15.0053   11.3392 C   0  0  0  0  0  0  0  0  0  0  0  0
   -9.1004  -15.1829    9.9457 O   0  0  0  0  0  0  0  0  0  0  0  0
   -8.1892  -16.3023   11.8677 C   0  0  0  0  0  0  0  0  0  0  0  0
   -8.9210  -17.4607   11.3740 N   0  0  0  0  0  0  0  0  0  0  0  0
  -10.2204  -17.7476   11.7324 C   0  0  0  0  0  0  0  0  0  0  0  0
  -10.8959  -17.0454   12.4771 O   0  0  0  0  0  0  0  0  0  0  0  0
  -10.7366  -19.0188   11.0848 C   0  0  0  0  0  0  0  0  0  0  0  0
  -11.7387  -18.7114    9.9693 C   0  0  0  0  0  0  0  0  0  0  0  0
  -13.1184  -19.1023   10.3208 N   0  0  0  0  0  0  0  0  0  0  0  0
  -13.4969  -18.4969   11.6020 C   0  0  0  0  0  0  0  0  0  0  0  0
  -14.0803  -18.7035    9.2892 C   0  0  0  0  0  0  0  0  0  0  0  0
  1  2  1  0
  2  3  2  0
  2  4  1  0
  4  5  1  0
  4  6  1  0
  6  7  1  0
  7  8  1  0
  8  9  2  0
  8 10  1  0
 10 11  1  0
 11 12  1  0
 12 13  1  0
 12 14  1  0
M  END
>  <Gold.Gold.Protein.RotatedWaterAtoms>  (203) 


>  <Gold.Id.Protein>  (203) 


>  <Gold.PLP.Chemscore.CHOScore>  (203) 
0.0000

>  <Gold.PLP.Chemscore.Hbond>  (203) 
3.0000

>  <Gold.PLP.Chemscore.Internal.Correction>  (203) 
0.0388

>  <Gold.PLP.Chemscore.Metal>  (203) 
0.0000

>  <Gold.PLP.Fitness>  (203) 
38.5898

>  <Gold.PLP.PLP>  (203) 
-30.9163

>  <Gold.PLP.ligand.clash>  (203) 
0.0000

>  <Gold.PLP.ligand.torsion>  (203) 
0.6826

>  <Gold.PLP.part.buried>  (203) 
-4.3448

>  <Gold.PLP.part.hbond>  (203) 
-5.0000

>  <Gold.PLP.part.metal>  (203) 
0.0000

>  <Gold.PLP.part.nonpolar>  (203) 
-21.5331

>  <Gold.PLP.part.repulsive>  (203) 
0.2958

>  <Gold.Protein.RotatedAtoms>  (203) 


>  <Gold.Protein.RotatedTorsions>  (203) 


>  <Gold.Protein.RotatedWaterAtoms>  (203) 


>  <Gold.Version>  (203) 
5.3.0

>  <PLP.Chemscore.CHOScore>  (203) 


>  <PLP.Chemscore.Hbond>  (203) 


>  <PLP.Chemscore.Internal.Correction>  (203) 


>  <PLP.Chemscore.Metal>  (203) 


>  <PLP.Fitness>  (203) 


>  <PLP.PLP>  (203) 


>  <PLP.ligand.clash>  (203) 


>  <PLP.ligand.torsion>  (203) 


>  <PLP.part.buried>  (203) 


>  <PLP.part.hbond>  (203) 


>  <PLP.part.metal>  (203) 


>  <PLP.part.nonpolar>  (203) 


>  <PLP.part.repulsive>  (203) 


>  <Version>  (203) 


$$$$
203|Compound_156|Compounds_3D_F|sdf|30|dock7|1
     RDKit          3D

 14 13  0  0  0  0  0  0  0  0999 V2000
  -11.6177  -19.8749   12.3255 O   0  0  0  0  0  0  0  0  0  0  0  0
  -11.1126  -18.7009   11.9036 C   0  0  0  0  0  0  0  0  0  0  0  0
  -11.5683  -17.6365   12.2976 O   0  0  0  0  0  0  0  0  0  0  0  0
  -10.0172  -18.8344   10.8619 C   0  0  0  0  0  0  0  0  0  0  0  0
  -10.4943  -18.3508    9.5962 O   0  0  0  0  0  0  0  0  0  0  0  0
   -8.7767  -18.0296   11.2466 C   0  0  0  0  0  0  0  0  0  0  0  0
   -9.0023  -16.6035   11.0557 N   0  0  0  0  0  0  0  0  0  0  0  0
   -7.9916  -15.6666   11.0657 C   0  0  0  0  0  0  0  0  0  0  0  0
   -6.8050  -15.9414   11.2084 O   0  0  0  0  0  0  0  0  0  0  0  0
   -8.5042  -14.2541   10.8564 C   0  0  0  0  0  0  0  0  0  0  0  0
   -8.7216  -13.5344   12.1898 C   0  0  0  0  0  0  0  0  0  0  0  0
   -7.6997  -12.5013   12.4516 N   0  0  0  0  0  0  0  0  0  0  0  0
   -6.3605  -13.0585   12.2337 C   0  0  0  0  0  0  0  0  0  0  0  0
   -7.8824  -11.3222   11.6003 C   0  0  0  0  0  0  0  0  0  0  0  0
  1  2  1  0
  2  3  2  0
  2  4  1  0
  4  5  1  0
  4  6  1  0
  6  7  1  0
  7  8  1  0
  8  9  2  0
  8 10  1  0
 10 11  1  0
 11 12  1  0
 12 13  1  0
 12 14  1  0
M  END
>  <Gold.Gold.Protein.RotatedWaterAtoms>  (204) 


>  <Gold.Id.Protein>  (204) 


>  <Gold.PLP.Chemscore.CHOScore>  (204) 
0.0000

>  <Gold.PLP.Chemscore.Hbond>  (204) 
2.0000

>  <Gold.PLP.Chemscore.Internal.Correction>  (204) 
0.0388

>  <Gold.PLP.Chemscore.Metal>  (204) 
0.0000

>  <Gold.PLP.Fitness>  (204) 
35.8299

>  <Gold.PLP.PLP>  (204) 
-31.8500

>  <Gold.PLP.ligand.clash>  (204) 
0.0000

>  <Gold.PLP.ligand.torsion>  (204) 
1.0294

>  <Gold.PLP.part.buried>  (204) 
-6.2500

>  <Gold.PLP.part.hbond>  (204) 
-2.6404

>  <Gold.PLP.part.metal>  (204) 
0.0000

>  <Gold.PLP.part.nonpolar>  (204) 
-23.3850

>  <Gold.PLP.part.repulsive>  (204) 
0.1999

>  <Gold.Protein.RotatedAtoms>  (204) 


>  <Gold.Protein.RotatedTorsions>  (204) 


>  <Gold.Protein.RotatedWaterAtoms>  (204) 


>  <Gold.Version>  (204) 
5.3.0

>  <PLP.Chemscore.CHOScore>  (204) 


>  <PLP.Chemscore.Hbond>  (204) 


>  <PLP.Chemscore.Internal.Correction>  (204) 


>  <PLP.Chemscore.Metal>  (204) 


>  <PLP.Fitness>  (204) 


>  <PLP.PLP>  (204) 


>  <PLP.ligand.clash>  (204) 


>  <PLP.ligand.torsion>  (204) 


>  <PLP.part.buried>  (204) 


>  <PLP.part.hbond>  (204) 


>  <PLP.part.metal>  (204) 


>  <PLP.part.nonpolar>  (204) 


>  <PLP.part.repulsive>  (204) 


>  <Version>  (204) 


$$$$
204|Compound_156|Compounds_3D_F|sdf|30|dock8|1
     RDKit          3D

 14 13  0  0  0  0  0  0  0  0999 V2000
   -5.4863  -15.1539   11.2783 O   0  0  0  0  0  0  0  0  0  0  0  0
   -6.5328  -14.9547   10.4558 C   0  0  0  0  0  0  0  0  0  0  0  0
   -6.3878  -14.9224    9.2418 O   0  0  0  0  0  0  0  0  0  0  0  0
   -7.8459  -14.6986   11.1722 C   0  0  0  0  0  0  0  0  0  0  0  0
   -8.8861  -14.4757   10.2068 O   0  0  0  0  0  0  0  0  0  0  0  0
   -8.2483  -15.8857   12.0460 C   0  0  0  0  0  0  0  0  0  0  0  0
   -8.7225  -16.9949   11.2300 N   0  0  0  0  0  0  0  0  0  0  0  0
   -9.9337  -17.6214   11.4298 C   0  0  0  0  0  0  0  0  0  0  0  0
  -10.7407  -17.2916   12.2923 O   0  0  0  0  0  0  0  0  0  0  0  0
  -10.1735  -18.7530   10.4482 C   0  0  0  0  0  0  0  0  0  0  0  0
  -11.3527  -18.4488    9.5208 C   0  0  0  0  0  0  0  0  0  0  0  0
  -12.5222  -19.3099    9.7870 N   0  0  0  0  0  0  0  0  0  0  0  0
  -13.7193  -18.7297    9.1692 C   0  0  0  0  0  0  0  0  0  0  0  0
  -12.3248  -20.6725    9.2840 C   0  0  0  0  0  0  0  0  0  0  0  0
  1  2  1  0
  2  3  2  0
  2  4  1  0
  4  5  1  0
  4  6  1  0
  6  7  1  0
  7  8  1  0
  8  9  2  0
  8 10  1  0
 10 11  1  0
 11 12  1  0
 12 13  1  0
 12 14  1  0
M  END
>  <Gold.Gold.Protein.RotatedWaterAtoms>  (205) 


>  <Gold.Id.Protein>  (205) 


>  <Gold.PLP.Chemscore.CHOScore>  (205) 
0.0000

>  <Gold.PLP.Chemscore.Hbond>  (205) 
3.6933

>  <Gold.PLP.Chemscore.Internal.Correction>  (205) 
0.0388

>  <Gold.PLP.Chemscore.Metal>  (205) 
0.0000

>  <Gold.PLP.Fitness>  (205) 
37.2697

>  <Gold.PLP.PLP>  (205) 
-27.3891

>  <Gold.PLP.ligand.clash>  (205) 
0.0000

>  <Gold.PLP.ligand.torsion>  (205) 
0.6190

>  <Gold.PLP.part.buried>  (205) 
-3.9664

>  <Gold.PLP.part.hbond>  (205) 
-5.8980

>  <Gold.PLP.part.metal>  (205) 
0.0000

>  <Gold.PLP.part.nonpolar>  (205) 
-18.2707

>  <Gold.PLP.part.repulsive>  (205) 
0.2703

>  <Gold.Protein.RotatedAtoms>  (205) 


>  <Gold.Protein.RotatedTorsions>  (205) 


>  <Gold.Protein.RotatedWaterAtoms>  (205) 


>  <Gold.Version>  (205) 
5.3.0

>  <PLP.Chemscore.CHOScore>  (205) 


>  <PLP.Chemscore.Hbond>  (205) 


>  <PLP.Chemscore.Internal.Correction>  (205) 


>  <PLP.Chemscore.Metal>  (205) 


>  <PLP.Fitness>  (205) 


>  <PLP.PLP>  (205) 


>  <PLP.ligand.clash>  (205) 


>  <PLP.ligand.torsion>  (205) 


>  <PLP.part.buried>  (205) 


>  <PLP.part.hbond>  (205) 


>  <PLP.part.metal>  (205) 


>  <PLP.part.nonpolar>  (205) 


>  <PLP.part.repulsive>  (205) 


>  <Version>  (205) 


$$$$
205|Compound_156|Compounds_3D_F|sdf|30|dock9|1
     RDKit          3D

 14 13  0  0  0  0  0  0  0  0999 V2000
   -6.0097  -14.7497    9.8049 O   0  0  0  0  0  0  0  0  0  0  0  0
   -7.1297  -15.4960    9.7981 C   0  0  0  0  0  0  0  0  0  0  0  0
   -7.3068  -16.3658    8.9568 O   0  0  0  0  0  0  0  0  0  0  0  0
   -8.1468  -15.0993   10.8522 C   0  0  0  0  0  0  0  0  0  0  0  0
   -9.4075  -14.8179   10.2237 O   0  0  0  0  0  0  0  0  0  0  0  0
   -8.3585  -16.2150   11.8745 C   0  0  0  0  0  0  0  0  0  0  0  0
   -9.0240  -17.3586   11.2659 N   0  0  0  0  0  0  0  0  0  0  0  0
  -10.2944  -17.7688   11.6081 C   0  0  0  0  0  0  0  0  0  0  0  0
  -10.9981  -17.1988   12.4351 O   0  0  0  0  0  0  0  0  0  0  0  0
  -10.7407  -18.9931   10.8311 C   0  0  0  0  0  0  0  0  0  0  0  0
  -11.9007  -18.6649    9.8879 C   0  0  0  0  0  0  0  0  0  0  0  0
  -13.0284  -19.6082   10.0239 N   0  0  0  0  0  0  0  0  0  0  0  0
  -13.5345  -19.5848   11.4004 C   0  0  0  0  0  0  0  0  0  0  0  0
  -14.1198  -19.2943    9.0971 C   0  0  0  0  0  0  0  0  0  0  0  0
  1  2  1  0
  2  3  2  0
  2  4  1  0
  4  5  1  0
  4  6  1  0
  6  7  1  0
  7  8  1  0
  8  9  2  0
  8 10  1  0
 10 11  1  0
 11 12  1  0
 12 13  1  0
 12 14  1  0
M  END
>  <Gold.Gold.Protein.RotatedWaterAtoms>  (206) 


>  <Gold.Id.Protein>  (206) 


>  <Gold.PLP.Chemscore.CHOScore>  (206) 
0.0000

>  <Gold.PLP.Chemscore.Hbond>  (206) 
3.6160

>  <Gold.PLP.Chemscore.Internal.Correction>  (206) 
0.0388

>  <Gold.PLP.Chemscore.Metal>  (206) 
0.0000

>  <Gold.PLP.Fitness>  (206) 
38.8748

>  <Gold.PLP.PLP>  (206) 
-29.0302

>  <Gold.PLP.ligand.clash>  (206) 
0.0000

>  <Gold.PLP.ligand.torsion>  (206) 
0.5211

>  <Gold.PLP.part.buried>  (206) 
-4.8460

>  <Gold.PLP.part.hbond>  (206) 
-5.8868

>  <Gold.PLP.part.metal>  (206) 
0.0000

>  <Gold.PLP.part.nonpolar>  (206) 
-18.6466

>  <Gold.PLP.part.repulsive>  (206) 
0.1893

>  <Gold.Protein.RotatedAtoms>  (206) 


>  <Gold.Protein.RotatedTorsions>  (206) 


>  <Gold.Protein.RotatedWaterAtoms>  (206) 


>  <Gold.Version>  (206) 
5.3.0

>  <PLP.Chemscore.CHOScore>  (206) 


>  <PLP.Chemscore.Hbond>  (206) 


>  <PLP.Chemscore.Internal.Correction>  (206) 


>  <PLP.Chemscore.Metal>  (206) 


>  <PLP.Fitness>  (206) 


>  <PLP.PLP>  (206) 


>  <PLP.ligand.clash>  (206) 


>  <PLP.ligand.torsion>  (206) 


>  <PLP.part.buried>  (206) 


>  <PLP.part.hbond>  (206) 


>  <PLP.part.metal>  (206) 


>  <PLP.part.nonpolar>  (206) 


>  <PLP.part.repulsive>  (206) 


>  <Version>  (206) 


$$$$
206|Compound_157|Compounds_3D_F|sdf|31|dock1|1
     RDKit          3D

 12 11  0  0  0  0  0  0  0  0999 V2000
   -9.0648  -17.5382   11.2502 N   0  0  0  0  0  0  0  0  0  0  0  0
   -9.0321  -16.2510   11.8288 C   0  0  0  0  0  0  0  0  0  0  0  0
  -10.0026  -15.7441   12.3730 O   0  0  0  0  0  0  0  0  0  0  0  0
   -7.7097  -15.5410   11.6505 C   0  0  0  0  0  0  0  0  0  0  0  0
   -7.7845  -14.1062   12.1726 C   0  0  0  0  0  0  0  0  0  0  0  0
   -6.5319  -13.3626   11.9504 N   0  0  0  0  0  0  0  0  0  0  0  0
   -6.6075  -11.9907   12.4608 C   0  0  0  0  0  0  0  0  0  0  0  0
   -5.4161  -14.0632   12.5922 C   0  0  0  0  0  0  0  0  0  0  0  0
  -10.3279  -18.6263   11.3895 S   0  0  0  0  0  0  0  0  0  0  0  0
   -9.7117  -19.9229   11.5829 O   0  0  0  0  0  0  0  0  0  0  0  0
  -11.3079  -18.1217   12.3254 O   0  0  0  0  0  0  0  0  0  0  0  0
  -11.0187  -18.6005    9.7493 C   0  0  0  0  0  0  0  0  0  0  0  0
  1  2  1  0
  1  9  1  0
  2  3  2  0
  2  4  1  0
  4  5  1  0
  5  6  1  0
  6  7  1  0
  6  8  1  0
  9 10  2  0
  9 11  2  0
  9 12  1  0
M  END
>  <Gold.Gold.Protein.RotatedWaterAtoms>  (207) 


>  <Gold.Id.Protein>  (207) 


>  <Gold.PLP.Chemscore.CHOScore>  (207) 
0.0000

>  <Gold.PLP.Chemscore.Hbond>  (207) 
1.9760

>  <Gold.PLP.Chemscore.Internal.Correction>  (207) 
1.0065

>  <Gold.PLP.Chemscore.Metal>  (207) 
0.0000

>  <Gold.PLP.Fitness>  (207) 
32.8498

>  <Gold.PLP.PLP>  (207) 
-26.9693

>  <Gold.PLP.ligand.clash>  (207) 
0.0000

>  <Gold.PLP.ligand.torsion>  (207) 
0.5270

>  <Gold.PLP.part.buried>  (207) 
-6.3208

>  <Gold.PLP.part.hbond>  (207) 
-1.7470

>  <Gold.PLP.part.metal>  (207) 
0.0000

>  <Gold.PLP.part.nonpolar>  (207) 
-20.0232

>  <Gold.PLP.part.repulsive>  (207) 
0.3955

>  <Gold.Protein.RotatedAtoms>  (207) 


>  <Gold.Protein.RotatedTorsions>  (207) 


>  <Gold.Protein.RotatedWaterAtoms>  (207) 


>  <Gold.Version>  (207) 
5.3.0

>  <PLP.Chemscore.CHOScore>  (207) 


>  <PLP.Chemscore.Hbond>  (207) 


>  <PLP.Chemscore.Internal.Correction>  (207) 


>  <PLP.Chemscore.Metal>  (207) 


>  <PLP.Fitness>  (207) 


>  <PLP.PLP>  (207) 


>  <PLP.ligand.clash>  (207) 


>  <PLP.ligand.torsion>  (207) 


>  <PLP.part.buried>  (207) 


>  <PLP.part.hbond>  (207) 


>  <PLP.part.metal>  (207) 


>  <PLP.part.nonpolar>  (207) 


>  <PLP.part.repulsive>  (207) 


>  <Version>  (207) 


$$$$
207|Compound_157|Compounds_3D_F|sdf|31|dock2|1
     RDKit          3D

 12 11  0  0  0  0  0  0  0  0999 V2000
   -4.0675  -16.1646   10.7607 N   0  0  0  0  0  0  0  0  0  0  0  0
   -5.0976  -16.3282   11.7119 C   0  0  0  0  0  0  0  0  0  0  0  0
   -5.6526  -17.3994   11.9101 O   0  0  0  0  0  0  0  0  0  0  0  0
   -5.4890  -15.0442   12.4067 C   0  0  0  0  0  0  0  0  0  0  0  0
   -6.9473  -14.6885   12.1176 C   0  0  0  0  0  0  0  0  0  0  0  0
   -7.3152  -13.3611   12.6412 N   0  0  0  0  0  0  0  0  0  0  0  0
   -6.3755  -12.3204   12.2140 C   0  0  0  0  0  0  0  0  0  0  0  0
   -8.6683  -13.0097   12.2017 C   0  0  0  0  0  0  0  0  0  0  0  0
   -3.3207  -17.4063    9.9247 S   0  0  0  0  0  0  0  0  0  0  0  0
   -1.8977  -17.2015   10.1027 O   0  0  0  0  0  0  0  0  0  0  0  0
   -3.9389  -18.6680   10.2667 O   0  0  0  0  0  0  0  0  0  0  0  0
   -3.7133  -17.0018    8.2364 C   0  0  0  0  0  0  0  0  0  0  0  0
  1  2  1  0
  1  9  1  0
  2  3  2  0
  2  4  1  0
  4  5  1  0
  5  6  1  0
  6  7  1  0
  6  8  1  0
  9 10  2  0
  9 11  2  0
  9 12  1  0
M  END
>  <Gold.Gold.Protein.RotatedWaterAtoms>  (208) 


>  <Gold.Id.Protein>  (208) 


>  <Gold.PLP.Chemscore.CHOScore>  (208) 
0.0000

>  <Gold.PLP.Chemscore.Hbond>  (208) 
2.0000

>  <Gold.PLP.Chemscore.Internal.Correction>  (208) 
1.0065

>  <Gold.PLP.Chemscore.Metal>  (208) 
0.0000

>  <Gold.PLP.Fitness>  (208) 
33.9127

>  <Gold.PLP.PLP>  (208) 
-28.0286

>  <Gold.PLP.ligand.clash>  (208) 
0.0000

>  <Gold.PLP.ligand.torsion>  (208) 
0.5612

>  <Gold.PLP.part.buried>  (208) 
-7.1661

>  <Gold.PLP.part.hbond>  (208) 
-2.0000

>  <Gold.PLP.part.metal>  (208) 
0.0000

>  <Gold.PLP.part.nonpolar>  (208) 
-19.4711

>  <Gold.PLP.part.repulsive>  (208) 
0.3822

>  <Gold.Protein.RotatedAtoms>  (208) 


>  <Gold.Protein.RotatedTorsions>  (208) 


>  <Gold.Protein.RotatedWaterAtoms>  (208) 


>  <Gold.Version>  (208) 
5.3.0

>  <PLP.Chemscore.CHOScore>  (208) 


>  <PLP.Chemscore.Hbond>  (208) 


>  <PLP.Chemscore.Internal.Correction>  (208) 


>  <PLP.Chemscore.Metal>  (208) 


>  <PLP.Fitness>  (208) 


>  <PLP.PLP>  (208) 


>  <PLP.ligand.clash>  (208) 


>  <PLP.ligand.torsion>  (208) 


>  <PLP.part.buried>  (208) 


>  <PLP.part.hbond>  (208) 


>  <PLP.part.metal>  (208) 


>  <PLP.part.nonpolar>  (208) 


>  <PLP.part.repulsive>  (208) 


>  <Version>  (208) 


$$$$
208|Compound_157|Compounds_3D_F|sdf|31|dock3|1
     RDKit          3D

 12 11  0  0  0  0  0  0  0  0999 V2000
   -9.6506  -18.2086   11.3512 N   0  0  0  0  0  0  0  0  0  0  0  0
   -9.2273  -16.9368   11.7940 C   0  0  0  0  0  0  0  0  0  0  0  0
  -10.0038  -16.0841   12.2001 O   0  0  0  0  0  0  0  0  0  0  0  0
   -7.7392  -16.7118   11.6541 C   0  0  0  0  0  0  0  0  0  0  0  0
   -7.3555  -15.2996   12.0960 C   0  0  0  0  0  0  0  0  0  0  0  0
   -5.9124  -15.0394   11.9515 N   0  0  0  0  0  0  0  0  0  0  0  0
   -5.5063  -13.7996   12.6196 C   0  0  0  0  0  0  0  0  0  0  0  0
   -5.1463  -16.1634   12.4970 C   0  0  0  0  0  0  0  0  0  0  0  0
  -11.2038  -18.8127   11.4968 S   0  0  0  0  0  0  0  0  0  0  0  0
  -11.0527  -20.1965   11.8975 O   0  0  0  0  0  0  0  0  0  0  0  0
  -12.0142  -17.8986   12.2708 O   0  0  0  0  0  0  0  0  0  0  0  0
  -11.7629  -18.8020    9.8070 C   0  0  0  0  0  0  0  0  0  0  0  0
  1  2  1  0
  1  9  1  0
  2  3  2  0
  2  4  1  0
  4  5  1  0
  5  6  1  0
  6  7  1  0
  6  8  1  0
  9 10  2  0
  9 11  2  0
  9 12  1  0
M  END
>  <Gold.Gold.Protein.RotatedWaterAtoms>  (209) 


>  <Gold.Id.Protein>  (209) 


>  <Gold.PLP.Chemscore.CHOScore>  (209) 
0.0000

>  <Gold.PLP.Chemscore.Hbond>  (209) 
1.9440

>  <Gold.PLP.Chemscore.Internal.Correction>  (209) 
1.0029

>  <Gold.PLP.Chemscore.Metal>  (209) 
0.0000

>  <Gold.PLP.Fitness>  (209) 
33.1379

>  <Gold.PLP.PLP>  (209) 
-27.4727

>  <Gold.PLP.ligand.clash>  (209) 
0.0000

>  <Gold.PLP.ligand.torsion>  (209) 
0.5849

>  <Gold.PLP.part.buried>  (209) 
-5.5102

>  <Gold.PLP.part.hbond>  (209) 
-2.5494

>  <Gold.PLP.part.metal>  (209) 
0.0000

>  <Gold.PLP.part.nonpolar>  (209) 
-19.3148

>  <Gold.PLP.part.repulsive>  (209) 
0.2999

>  <Gold.Protein.RotatedAtoms>  (209) 


>  <Gold.Protein.RotatedTorsions>  (209) 


>  <Gold.Protein.RotatedWaterAtoms>  (209) 


>  <Gold.Version>  (209) 
5.3.0

>  <PLP.Chemscore.CHOScore>  (209) 


>  <PLP.Chemscore.Hbond>  (209) 


>  <PLP.Chemscore.Internal.Correction>  (209) 


>  <PLP.Chemscore.Metal>  (209) 


>  <PLP.Fitness>  (209) 


>  <PLP.PLP>  (209) 


>  <PLP.ligand.clash>  (209) 


>  <PLP.ligand.torsion>  (209) 


>  <PLP.part.buried>  (209) 


>  <PLP.part.hbond>  (209) 


>  <PLP.part.metal>  (209) 


>  <PLP.part.nonpolar>  (209) 


>  <PLP.part.repulsive>  (209) 


>  <Version>  (209) 


$$$$
209|Compound_157|Compounds_3D_F|sdf|31|dock4|1
     RDKit          3D

 12 11  0  0  0  0  0  0  0  0999 V2000
   -8.7869  -17.4845   11.4101 N   0  0  0  0  0  0  0  0  0  0  0  0
   -8.5174  -16.1309   11.7066 C   0  0  0  0  0  0  0  0  0  0  0  0
   -9.3992  -15.3088   11.9100 O   0  0  0  0  0  0  0  0  0  0  0  0
   -7.0457  -15.7873   11.6810 C   0  0  0  0  0  0  0  0  0  0  0  0
   -6.7711  -14.6292   10.7216 C   0  0  0  0  0  0  0  0  0  0  0  0
   -6.7185  -13.3289   11.4128 N   0  0  0  0  0  0  0  0  0  0  0  0
   -8.0347  -12.9133   11.9060 C   0  0  0  0  0  0  0  0  0  0  0  0
   -5.7752  -13.3974   12.5322 C   0  0  0  0  0  0  0  0  0  0  0  0
  -10.2934  -18.2076   11.4888 S   0  0  0  0  0  0  0  0  0  0  0  0
  -10.0506  -19.5841   11.8691 O   0  0  0  0  0  0  0  0  0  0  0  0
  -11.1973  -17.3741   12.2499 O   0  0  0  0  0  0  0  0  0  0  0  0
  -10.7933  -18.2036    9.7805 C   0  0  0  0  0  0  0  0  0  0  0  0
  1  2  1  0
  1  9  1  0
  2  3  2  0
  2  4  1  0
  4  5  1  0
  5  6  1  0
  6  7  1  0
  6  8  1  0
  9 10  2  0
  9 11  2  0
  9 12  1  0
M  END
>  <Gold.Gold.Protein.RotatedWaterAtoms>  (210) 


>  <Gold.Id.Protein>  (210) 


>  <Gold.PLP.Chemscore.CHOScore>  (210) 
0.0000

>  <Gold.PLP.Chemscore.Hbond>  (210) 
2.0000

>  <Gold.PLP.Chemscore.Internal.Correction>  (210) 
1.0015

>  <Gold.PLP.Chemscore.Metal>  (210) 
0.0000

>  <Gold.PLP.Fitness>  (210) 
34.4274

>  <Gold.PLP.PLP>  (210) 
-29.0624

>  <Gold.PLP.ligand.clash>  (210) 
0.0000

>  <Gold.PLP.ligand.torsion>  (210) 
0.8182

>  <Gold.PLP.part.buried>  (210) 
-6.1952

>  <Gold.PLP.part.hbond>  (210) 
-3.7685

>  <Gold.PLP.part.metal>  (210) 
0.0000

>  <Gold.PLP.part.nonpolar>  (210) 
-19.0670

>  <Gold.PLP.part.repulsive>  (210) 
0.3458

>  <Gold.Protein.RotatedAtoms>  (210) 


>  <Gold.Protein.RotatedTorsions>  (210) 


>  <Gold.Protein.RotatedWaterAtoms>  (210) 


>  <Gold.Version>  (210) 
5.3.0

>  <PLP.Chemscore.CHOScore>  (210) 


>  <PLP.Chemscore.Hbond>  (210) 


>  <PLP.Chemscore.Internal.Correction>  (210) 


>  <PLP.Chemscore.Metal>  (210) 


>  <PLP.Fitness>  (210) 


>  <PLP.PLP>  (210) 


>  <PLP.ligand.clash>  (210) 


>  <PLP.ligand.torsion>  (210) 


>  <PLP.part.buried>  (210) 


>  <PLP.part.hbond>  (210) 


>  <PLP.part.metal>  (210) 


>  <PLP.part.nonpolar>  (210) 


>  <PLP.part.repulsive>  (210) 


>  <Version>  (210) 


$$$$
210|Compound_157|Compounds_3D_F|sdf|31|dock5|1
     RDKit          3D

 12 11  0  0  0  0  0  0  0  0999 V2000
   -4.0285  -16.0630   10.9642 N   0  0  0  0  0  0  0  0  0  0  0  0
   -5.1579  -16.1030   11.8101 C   0  0  0  0  0  0  0  0  0  0  0  0
   -5.8213  -17.1155   11.9824 O   0  0  0  0  0  0  0  0  0  0  0  0
   -5.5023  -14.7651   12.4233 C   0  0  0  0  0  0  0  0  0  0  0  0
   -6.7633  -14.1803   11.7872 C   0  0  0  0  0  0  0  0  0  0  0  0
   -7.2166  -12.9535   12.4661 N   0  0  0  0  0  0  0  0  0  0  0  0
   -6.2377  -11.8683   12.3549 C   0  0  0  0  0  0  0  0  0  0  0  0
   -8.4977  -12.5172   11.9037 C   0  0  0  0  0  0  0  0  0  0  0  0
   -3.3142  -17.3941   10.2456 S   0  0  0  0  0  0  0  0  0  0  0  0
   -1.9393  -17.0150    9.9921 O   0  0  0  0  0  0  0  0  0  0  0  0
   -3.6297  -18.5864   11.0006 O   0  0  0  0  0  0  0  0  0  0  0  0
   -4.1506  -17.4582    8.6757 C   0  0  0  0  0  0  0  0  0  0  0  0
  1  2  1  0
  1  9  1  0
  2  3  2  0
  2  4  1  0
  4  5  1  0
  5  6  1  0
  6  7  1  0
  6  8  1  0
  9 10  2  0
  9 11  2  0
  9 12  1  0
M  END
>  <Gold.Gold.Protein.RotatedWaterAtoms>  (211) 


>  <Gold.Id.Protein>  (211) 


>  <Gold.PLP.Chemscore.CHOScore>  (211) 
0.0000

>  <Gold.PLP.Chemscore.Hbond>  (211) 
1.9920

>  <Gold.PLP.Chemscore.Internal.Correction>  (211) 
1.0015

>  <Gold.PLP.Chemscore.Metal>  (211) 
0.0000

>  <Gold.PLP.Fitness>  (211) 
34.2930

>  <Gold.PLP.PLP>  (211) 
-28.5853

>  <Gold.PLP.ligand.clash>  (211) 
0.0000

>  <Gold.PLP.ligand.torsion>  (211) 
0.6349

>  <Gold.PLP.part.buried>  (211) 
-7.6675

>  <Gold.PLP.part.hbond>  (211) 
-2.0000

>  <Gold.PLP.part.metal>  (211) 
0.0000

>  <Gold.PLP.part.nonpolar>  (211) 
-19.1421

>  <Gold.PLP.part.repulsive>  (211) 
0.4080

>  <Gold.Protein.RotatedAtoms>  (211) 


>  <Gold.Protein.RotatedTorsions>  (211) 


>  <Gold.Protein.RotatedWaterAtoms>  (211) 


>  <Gold.Version>  (211) 
5.3.0

>  <PLP.Chemscore.CHOScore>  (211) 


>  <PLP.Chemscore.Hbond>  (211) 


>  <PLP.Chemscore.Internal.Correction>  (211) 


>  <PLP.Chemscore.Metal>  (211) 


>  <PLP.Fitness>  (211) 


>  <PLP.PLP>  (211) 


>  <PLP.ligand.clash>  (211) 


>  <PLP.ligand.torsion>  (211) 


>  <PLP.part.buried>  (211) 


>  <PLP.part.hbond>  (211) 


>  <PLP.part.metal>  (211) 


>  <PLP.part.nonpolar>  (211) 


>  <PLP.part.repulsive>  (211) 


>  <Version>  (211) 


$$$$
211|Compound_157|Compounds_3D_F|sdf|31|dock6|1
     RDKit          3D

 12 11  0  0  0  0  0  0  0  0999 V2000
   -4.2205  -16.0857   10.8115 N   0  0  0  0  0  0  0  0  0  0  0  0
   -5.0495  -16.1580   11.9518 C   0  0  0  0  0  0  0  0  0  0  0  0
   -5.4553  -17.2164   12.4101 O   0  0  0  0  0  0  0  0  0  0  0  0
   -5.4374  -14.8057   12.5045 C   0  0  0  0  0  0  0  0  0  0  0  0
   -6.5671  -14.1831   11.6842 C   0  0  0  0  0  0  0  0  0  0  0  0
   -7.1351  -12.9864   12.3297 N   0  0  0  0  0  0  0  0  0  0  0  0
   -6.1936  -11.8631   12.3336 C   0  0  0  0  0  0  0  0  0  0  0  0
   -8.3687  -12.5893   11.6454 C   0  0  0  0  0  0  0  0  0  0  0  0
   -3.5128  -17.3958   10.0491 S   0  0  0  0  0  0  0  0  0  0  0  0
   -2.0935  -17.2894   10.3185 O   0  0  0  0  0  0  0  0  0  0  0  0
   -4.2423  -18.6022   10.3706 O   0  0  0  0  0  0  0  0  0  0  0  0
   -3.7633  -17.0016    8.3315 C   0  0  0  0  0  0  0  0  0  0  0  0
  1  2  1  0
  1  9  1  0
  2  3  2  0
  2  4  1  0
  4  5  1  0
  5  6  1  0
  6  7  1  0
  6  8  1  0
  9 10  2  0
  9 11  2  0
  9 12  1  0
M  END
>  <Gold.Gold.Protein.RotatedWaterAtoms>  (212) 


>  <Gold.Id.Protein>  (212) 


>  <Gold.PLP.Chemscore.CHOScore>  (212) 
0.0000

>  <Gold.PLP.Chemscore.Hbond>  (212) 
2.0000

>  <Gold.PLP.Chemscore.Internal.Correction>  (212) 
1.0015

>  <Gold.PLP.Chemscore.Metal>  (212) 
0.0000

>  <Gold.PLP.Fitness>  (212) 
33.8232

>  <Gold.PLP.PLP>  (212) 
-28.6583

>  <Gold.PLP.ligand.clash>  (212) 
0.0000

>  <Gold.PLP.ligand.torsion>  (212) 
0.9183

>  <Gold.PLP.part.buried>  (212) 
-7.5281

>  <Gold.PLP.part.hbond>  (212) 
-2.0000

>  <Gold.PLP.part.metal>  (212) 
0.0000

>  <Gold.PLP.part.nonpolar>  (212) 
-20.0883

>  <Gold.PLP.part.repulsive>  (212) 
0.3695

>  <Gold.Protein.RotatedAtoms>  (212) 


>  <Gold.Protein.RotatedTorsions>  (212) 


>  <Gold.Protein.RotatedWaterAtoms>  (212) 


>  <Gold.Version>  (212) 
5.3.0

>  <PLP.Chemscore.CHOScore>  (212) 


>  <PLP.Chemscore.Hbond>  (212) 


>  <PLP.Chemscore.Internal.Correction>  (212) 


>  <PLP.Chemscore.Metal>  (212) 


>  <PLP.Fitness>  (212) 


>  <PLP.PLP>  (212) 


>  <PLP.ligand.clash>  (212) 


>  <PLP.ligand.torsion>  (212) 


>  <PLP.part.buried>  (212) 


>  <PLP.part.hbond>  (212) 


>  <PLP.part.metal>  (212) 


>  <PLP.part.nonpolar>  (212) 


>  <PLP.part.repulsive>  (212) 


>  <Version>  (212) 


$$$$
212|Compound_157|Compounds_3D_F|sdf|31|dock7|1
     RDKit          3D

 12 11  0  0  0  0  0  0  0  0999 V2000
  -10.2376  -17.1079   11.4141 N   0  0  0  0  0  0  0  0  0  0  0  0
   -8.8482  -16.9656   11.2092 C   0  0  0  0  0  0  0  0  0  0  0  0
   -8.0659  -17.9010   11.2978 O   0  0  0  0  0  0  0  0  0  0  0  0
   -8.4194  -15.5416   10.9386 C   0  0  0  0  0  0  0  0  0  0  0  0
   -7.4340  -15.0558   12.0015 C   0  0  0  0  0  0  0  0  0  0  0  0
   -6.9486  -13.6904   11.7339 N   0  0  0  0  0  0  0  0  0  0  0  0
   -8.0076  -12.6889   11.8883 C   0  0  0  0  0  0  0  0  0  0  0  0
   -5.8374  -13.3713   12.6345 C   0  0  0  0  0  0  0  0  0  0  0  0
  -11.0406  -18.5636   11.6011 S   0  0  0  0  0  0  0  0  0  0  0  0
  -10.0141  -19.5476   11.8770 O   0  0  0  0  0  0  0  0  0  0  0  0
  -12.1649  -18.3913   12.4941 O   0  0  0  0  0  0  0  0  0  0  0  0
  -11.6436  -18.8656    9.9539 C   0  0  0  0  0  0  0  0  0  0  0  0
  1  2  1  0
  1  9  1  0
  2  3  2  0
  2  4  1  0
  4  5  1  0
  5  6  1  0
  6  7  1  0
  6  8  1  0
  9 10  2  0
  9 11  2  0
  9 12  1  0
M  END
>  <Gold.Gold.Protein.RotatedWaterAtoms>  (213) 


>  <Gold.Id.Protein>  (213) 


>  <Gold.PLP.Chemscore.CHOScore>  (213) 
0.0000

>  <Gold.PLP.Chemscore.Hbond>  (213) 
2.0000

>  <Gold.PLP.Chemscore.Internal.Correction>  (213) 
1.0015

>  <Gold.PLP.Chemscore.Metal>  (213) 
0.0000

>  <Gold.PLP.Fitness>  (213) 
32.8235

>  <Gold.PLP.PLP>  (213) 
-26.9271

>  <Gold.PLP.ligand.clash>  (213) 
0.0000

>  <Gold.PLP.ligand.torsion>  (213) 
0.5526

>  <Gold.PLP.part.buried>  (213) 
-6.8134

>  <Gold.PLP.part.hbond>  (213) 
-1.9643

>  <Gold.PLP.part.metal>  (213) 
0.0000

>  <Gold.PLP.part.nonpolar>  (213) 
-18.5510

>  <Gold.PLP.part.repulsive>  (213) 
0.2544

>  <Gold.Protein.RotatedAtoms>  (213) 


>  <Gold.Protein.RotatedTorsions>  (213) 


>  <Gold.Protein.RotatedWaterAtoms>  (213) 


>  <Gold.Version>  (213) 
5.3.0

>  <PLP.Chemscore.CHOScore>  (213) 


>  <PLP.Chemscore.Hbond>  (213) 


>  <PLP.Chemscore.Internal.Correction>  (213) 


>  <PLP.Chemscore.Metal>  (213) 


>  <PLP.Fitness>  (213) 


>  <PLP.PLP>  (213) 


>  <PLP.ligand.clash>  (213) 


>  <PLP.ligand.torsion>  (213) 


>  <PLP.part.buried>  (213) 


>  <PLP.part.hbond>  (213) 


>  <PLP.part.metal>  (213) 


>  <PLP.part.nonpolar>  (213) 


>  <PLP.part.repulsive>  (213) 


>  <Version>  (213) 


$$$$
213|Compound_157|Compounds_3D_F|sdf|31|dock8|1
     RDKit          3D

 12 11  0  0  0  0  0  0  0  0999 V2000
   -9.9075  -16.7781   11.2741 N   0  0  0  0  0  0  0  0  0  0  0  0
   -8.5302  -16.5843   11.0330 C   0  0  0  0  0  0  0  0  0  0  0  0
   -7.7120  -17.4905   11.0987 O   0  0  0  0  0  0  0  0  0  0  0  0
   -8.1613  -15.1452   10.7545 C   0  0  0  0  0  0  0  0  0  0  0  0
   -7.4423  -14.5234   11.9516 C   0  0  0  0  0  0  0  0  0  0  0  0
   -6.9189  -13.1783   11.6547 N   0  0  0  0  0  0  0  0  0  0  0  0
   -7.9287  -12.1361   11.8607 C   0  0  0  0  0  0  0  0  0  0  0  0
   -5.7507  -12.9015   12.4952 C   0  0  0  0  0  0  0  0  0  0  0  0
  -10.6513  -18.2625   11.4788 S   0  0  0  0  0  0  0  0  0  0  0  0
   -9.5781  -19.2283   11.5967 O   0  0  0  0  0  0  0  0  0  0  0  0
  -11.6754  -18.1612   12.4946 O   0  0  0  0  0  0  0  0  0  0  0  0
  -11.4227  -18.5094    9.8938 C   0  0  0  0  0  0  0  0  0  0  0  0
  1  2  1  0
  1  9  1  0
  2  3  2  0
  2  4  1  0
  4  5  1  0
  5  6  1  0
  6  7  1  0
  6  8  1  0
  9 10  2  0
  9 11  2  0
  9 12  1  0
M  END
>  <Gold.Gold.Protein.RotatedWaterAtoms>  (214) 


>  <Gold.Id.Protein>  (214) 


>  <Gold.PLP.Chemscore.CHOScore>  (214) 
0.0000

>  <Gold.PLP.Chemscore.Hbond>  (214) 
2.0000

>  <Gold.PLP.Chemscore.Internal.Correction>  (214) 
1.0015

>  <Gold.PLP.Chemscore.Metal>  (214) 
0.0000

>  <Gold.PLP.Fitness>  (214) 
32.3870

>  <Gold.PLP.PLP>  (214) 
-27.3176

>  <Gold.PLP.ligand.clash>  (214) 
0.0000

>  <Gold.PLP.ligand.torsion>  (214) 
0.9660

>  <Gold.PLP.part.buried>  (214) 
-6.8292

>  <Gold.PLP.part.hbond>  (214) 
-1.8875

>  <Gold.PLP.part.metal>  (214) 
0.0000

>  <Gold.PLP.part.nonpolar>  (214) 
-18.5266

>  <Gold.PLP.part.repulsive>  (214) 
0.2281

>  <Gold.Protein.RotatedAtoms>  (214) 


>  <Gold.Protein.RotatedTorsions>  (214) 


>  <Gold.Protein.RotatedWaterAtoms>  (214) 


>  <Gold.Version>  (214) 
5.3.0

>  <PLP.Chemscore.CHOScore>  (214) 


>  <PLP.Chemscore.Hbond>  (214) 


>  <PLP.Chemscore.Internal.Correction>  (214) 


>  <PLP.Chemscore.Metal>  (214) 


>  <PLP.Fitness>  (214) 


>  <PLP.PLP>  (214) 


>  <PLP.ligand.clash>  (214) 


>  <PLP.ligand.torsion>  (214) 


>  <PLP.part.buried>  (214) 


>  <PLP.part.hbond>  (214) 


>  <PLP.part.metal>  (214) 


>  <PLP.part.nonpolar>  (214) 


>  <PLP.part.repulsive>  (214) 


>  <Version>  (214) 


$$$$
214|Compound_157|Compounds_3D_F|sdf|31|dock9|1
     RDKit          3D

 12 11  0  0  0  0  0  0  0  0999 V2000
   -4.0406  -16.2509   10.7387 N   0  0  0  0  0  0  0  0  0  0  0  0
   -5.1581  -16.4555   11.5766 C   0  0  0  0  0  0  0  0  0  0  0  0
   -5.7695  -17.5134   11.6195 O   0  0  0  0  0  0  0  0  0  0  0  0
   -5.5613  -15.2263   12.3584 C   0  0  0  0  0  0  0  0  0  0  0  0
   -6.9569  -14.7530   11.9520 C   0  0  0  0  0  0  0  0  0  0  0  0
   -7.3574  -13.5205   12.6533 N   0  0  0  0  0  0  0  0  0  0  0  0
   -6.4024  -12.4294   12.4389 C   0  0  0  0  0  0  0  0  0  0  0  0
   -8.6882  -13.1019   12.2045 C   0  0  0  0  0  0  0  0  0  0  0  0
   -3.2694  -17.4415    9.8520 S   0  0  0  0  0  0  0  0  0  0  0  0
   -4.1763  -17.7804    8.7745 O   0  0  0  0  0  0  0  0  0  0  0  0
   -1.9063  -17.0434    9.5792 O   0  0  0  0  0  0  0  0  0  0  0  0
   -3.2620  -18.8057   10.9953 C   0  0  0  0  0  0  0  0  0  0  0  0
  1  2  1  0
  1  9  1  0
  2  3  2  0
  2  4  1  0
  4  5  1  0
  5  6  1  0
  6  7  1  0
  6  8  1  0
  9 10  2  0
  9 11  2  0
  9 12  1  0
M  END
>  <Gold.Gold.Protein.RotatedWaterAtoms>  (215) 


>  <Gold.Id.Protein>  (215) 


>  <Gold.PLP.Chemscore.CHOScore>  (215) 
0.0000

>  <Gold.PLP.Chemscore.Hbond>  (215) 
2.0000

>  <Gold.PLP.Chemscore.Internal.Correction>  (215) 
1.0015

>  <Gold.PLP.Chemscore.Metal>  (215) 
0.0000

>  <Gold.PLP.Fitness>  (215) 
33.9608

>  <Gold.PLP.PLP>  (215) 
-28.0999

>  <Gold.PLP.ligand.clash>  (215) 
0.0000

>  <Gold.PLP.ligand.torsion>  (215) 
0.5703

>  <Gold.PLP.part.buried>  (215) 
-6.7005

>  <Gold.PLP.part.hbond>  (215) 
-2.0000

>  <Gold.PLP.part.metal>  (215) 
0.0000

>  <Gold.PLP.part.nonpolar>  (215) 
-19.8233

>  <Gold.PLP.part.repulsive>  (215) 
0.4180

>  <Gold.Protein.RotatedAtoms>  (215) 


>  <Gold.Protein.RotatedTorsions>  (215) 


>  <Gold.Protein.RotatedWaterAtoms>  (215) 


>  <Gold.Version>  (215) 
5.3.0

>  <PLP.Chemscore.CHOScore>  (215) 


>  <PLP.Chemscore.Hbond>  (215) 


>  <PLP.Chemscore.Internal.Correction>  (215) 


>  <PLP.Chemscore.Metal>  (215) 


>  <PLP.Fitness>  (215) 


>  <PLP.PLP>  (215) 


>  <PLP.ligand.clash>  (215) 


>  <PLP.ligand.torsion>  (215) 


>  <PLP.part.buried>  (215) 


>  <PLP.part.hbond>  (215) 


>  <PLP.part.metal>  (215) 


>  <PLP.part.nonpolar>  (215) 


>  <PLP.part.repulsive>  (215) 


>  <Version>  (215) 


$$$$
215|Compound_158|Compounds_3D_F|sdf|32|dock1|1
     RDKit          3D

 20 19  0  0  0  0  0  0  0  0999 V2000
  -10.6202  -17.7512   10.8850 N   0  0  0  0  0  0  0  0  0  0  0  0
   -9.2411  -17.7210   10.8045 C   0  0  0  0  0  0  0  0  0  0  0  0
   -8.5303  -18.6920   11.0412 O   0  0  0  0  0  0  0  0  0  0  0  0
   -8.7056  -16.3638   10.3898 C   0  0  0  0  0  0  0  0  0  0  0  0
   -7.7186  -15.7944   11.4101 C   0  0  0  0  0  0  0  0  0  0  0  0
   -7.5513  -14.2790   11.2333 C   0  0  0  0  0  0  0  0  0  0  0  0
   -6.9239  -13.6262   12.3957 N   0  0  0  0  0  0  0  0  0  0  0  0
   -5.4993  -13.9448   12.5080 C   0  0  0  0  0  0  0  0  0  0  0  0
   -7.0985  -12.1736   12.3086 C   0  0  0  0  0  0  0  0  0  0  0  0
  -11.3248  -18.9729   11.2588 C   0  0  0  0  0  0  0  0  0  0  0  0
  -12.6437  -19.1596   10.5131 C   0  0  0  0  0  0  0  0  0  0  0  0
  -13.5897  -18.3641   11.0788 F   0  0  0  0  0  0  0  0  0  0  0  0
  -12.4981  -18.7250    9.2340 F   0  0  0  0  0  0  0  0  0  0  0  0
  -13.0938  -20.6055   10.5300 C   0  0  0  0  0  0  0  0  0  0  0  0
  -12.0498  -21.4108   10.1843 F   0  0  0  0  0  0  0  0  0  0  0  0
  -13.4338  -20.9616   11.8008 F   0  0  0  0  0  0  0  0  0  0  0  0
  -14.2600  -20.8350    9.5935 C   0  0  0  0  0  0  0  0  0  0  0  0
  -15.3068  -20.0287    9.8772 F   0  0  0  0  0  0  0  0  0  0  0  0
  -13.9080  -20.5880    8.3084 F   0  0  0  0  0  0  0  0  0  0  0  0
  -14.7072  -22.1102    9.6420 F   0  0  0  0  0  0  0  0  0  0  0  0
  1  2  1  0
  1 10  1  0
  2  3  2  0
  2  4  1  0
  4  5  1  0
  5  6  1  0
  6  7  1  0
  7  8  1  0
  7  9  1  0
 10 11  1  0
 11 12  1  0
 11 13  1  0
 11 14  1  0
 14 15  1  0
 14 16  1  0
 14 17  1  0
 17 18  1  0
 17 19  1  0
 17 20  1  0
M  END
>  <Gold.Gold.Protein.RotatedWaterAtoms>  (216) 


>  <Gold.Id.Protein>  (216) 


>  <Gold.PLP.Chemscore.CHOScore>  (216) 
0.0000

>  <Gold.PLP.Chemscore.Hbond>  (216) 
1.0000

>  <Gold.PLP.Chemscore.Internal.Correction>  (216) 
0.4163

>  <Gold.PLP.Chemscore.Metal>  (216) 
0.0000

>  <Gold.PLP.Fitness>  (216) 
44.1364

>  <Gold.PLP.PLP>  (216) 
-42.6507

>  <Gold.PLP.ligand.clash>  (216) 
0.0000

>  <Gold.PLP.ligand.torsion>  (216) 
0.9653

>  <Gold.PLP.part.buried>  (216) 
-7.8478

>  <Gold.PLP.part.hbond>  (216) 
-1.0000

>  <Gold.PLP.part.metal>  (216) 
0.0000

>  <Gold.PLP.part.nonpolar>  (216) 
-33.5786

>  <Gold.PLP.part.repulsive>  (216) 
0.1684

>  <Gold.Protein.RotatedAtoms>  (216) 


>  <Gold.Protein.RotatedTorsions>  (216) 


>  <Gold.Protein.RotatedWaterAtoms>  (216) 


>  <Gold.Version>  (216) 
5.3.0

>  <PLP.Chemscore.CHOScore>  (216) 


>  <PLP.Chemscore.Hbond>  (216) 


>  <PLP.Chemscore.Internal.Correction>  (216) 


>  <PLP.Chemscore.Metal>  (216) 


>  <PLP.Fitness>  (216) 


>  <PLP.PLP>  (216) 


>  <PLP.ligand.clash>  (216) 


>  <PLP.ligand.torsion>  (216) 


>  <PLP.part.buried>  (216) 


>  <PLP.part.hbond>  (216) 


>  <PLP.part.metal>  (216) 


>  <PLP.part.nonpolar>  (216) 


>  <PLP.part.repulsive>  (216) 


>  <Version>  (216) 


$$$$
216|Compound_158|Compounds_3D_F|sdf|32|dock2|1
     RDKit          3D

 20 19  0  0  0  0  0  0  0  0999 V2000
   -9.9849  -17.2886   11.5660 N   0  0  0  0  0  0  0  0  0  0  0  0
   -8.7536  -16.6616   11.5758 C   0  0  0  0  0  0  0  0  0  0  0  0
   -7.7033  -17.2336   11.3045 O   0  0  0  0  0  0  0  0  0  0  0  0
   -8.8431  -15.1951   11.9530 C   0  0  0  0  0  0  0  0  0  0  0  0
   -8.2640  -14.2825   10.8708 C   0  0  0  0  0  0  0  0  0  0  0  0
   -7.7008  -12.9906   11.4785 C   0  0  0  0  0  0  0  0  0  0  0  0
   -6.2432  -13.0371   11.6890 N   0  0  0  0  0  0  0  0  0  0  0  0
   -5.7384  -11.8264   12.3395 C   0  0  0  0  0  0  0  0  0  0  0  0
   -5.8906  -14.2113   12.4920 C   0  0  0  0  0  0  0  0  0  0  0  0
  -10.1070  -18.6998   11.2167 C   0  0  0  0  0  0  0  0  0  0  0  0
  -11.2042  -18.9737   10.1912 C   0  0  0  0  0  0  0  0  0  0  0  0
  -11.2891  -17.9177    9.3395 F   0  0  0  0  0  0  0  0  0  0  0  0
  -10.8492  -20.0444    9.4336 F   0  0  0  0  0  0  0  0  0  0  0  0
  -12.5414  -19.2204   10.8578 C   0  0  0  0  0  0  0  0  0  0  0  0
  -12.4732  -20.3572   11.6068 F   0  0  0  0  0  0  0  0  0  0  0  0
  -12.8056  -18.2118   11.7353 F   0  0  0  0  0  0  0  0  0  0  0  0
  -13.6563  -19.3337    9.8410 C   0  0  0  0  0  0  0  0  0  0  0  0
  -13.8701  -18.1696    9.1887 F   0  0  0  0  0  0  0  0  0  0  0  0
  -13.3651  -20.2655    8.9012 F   0  0  0  0  0  0  0  0  0  0  0  0
  -14.8274  -19.6994   10.4097 F   0  0  0  0  0  0  0  0  0  0  0  0
  1  2  1  0
  1 10  1  0
  2  3  2  0
  2  4  1  0
  4  5  1  0
  5  6  1  0
  6  7  1  0
  7  8  1  0
  7  9  1  0
 10 11  1  0
 11 12  1  0
 11 13  1  0
 11 14  1  0
 14 15  1  0
 14 16  1  0
 14 17  1  0
 17 18  1  0
 17 19  1  0
 17 20  1  0
M  END
>  <Gold.Gold.Protein.RotatedWaterAtoms>  (217) 


>  <Gold.Id.Protein>  (217) 


>  <Gold.PLP.Chemscore.CHOScore>  (217) 
0.0000

>  <Gold.PLP.Chemscore.Hbond>  (217) 
0.6224

>  <Gold.PLP.Chemscore.Internal.Correction>  (217) 
0.1212

>  <Gold.PLP.Chemscore.Metal>  (217) 
0.0000

>  <Gold.PLP.Fitness>  (217) 
50.3727

>  <Gold.PLP.PLP>  (217) 
-50.8839

>  <Gold.PLP.ligand.clash>  (217) 
0.0000

>  <Gold.PLP.ligand.torsion>  (217) 
1.2498

>  <Gold.PLP.part.buried>  (217) 
-6.4885

>  <Gold.PLP.part.hbond>  (217) 
-1.9643

>  <Gold.PLP.part.metal>  (217) 
0.0000

>  <Gold.PLP.part.nonpolar>  (217) 
-41.6444

>  <Gold.PLP.part.repulsive>  (217) 
0.2969

>  <Gold.Protein.RotatedAtoms>  (217) 


>  <Gold.Protein.RotatedTorsions>  (217) 


>  <Gold.Protein.RotatedWaterAtoms>  (217) 


>  <Gold.Version>  (217) 
5.3.0

>  <PLP.Chemscore.CHOScore>  (217) 


>  <PLP.Chemscore.Hbond>  (217) 


>  <PLP.Chemscore.Internal.Correction>  (217) 


>  <PLP.Chemscore.Metal>  (217) 


>  <PLP.Fitness>  (217) 


>  <PLP.PLP>  (217) 


>  <PLP.ligand.clash>  (217) 


>  <PLP.ligand.torsion>  (217) 


>  <PLP.part.buried>  (217) 


>  <PLP.part.hbond>  (217) 


>  <PLP.part.metal>  (217) 


>  <PLP.part.nonpolar>  (217) 


>  <PLP.part.repulsive>  (217) 


>  <Version>  (217) 


$$$$
217|Compound_158|Compounds_3D_F|sdf|32|dock3|1
     RDKit          3D

 20 19  0  0  0  0  0  0  0  0999 V2000
  -10.6445  -19.2005   10.9804 N   0  0  0  0  0  0  0  0  0  0  0  0
  -10.3720  -18.0017   11.6111 C   0  0  0  0  0  0  0  0  0  0  0  0
  -11.2105  -17.3642   12.2392 O   0  0  0  0  0  0  0  0  0  0  0  0
   -8.9289  -17.5647   11.4458 C   0  0  0  0  0  0  0  0  0  0  0  0
   -8.6952  -16.1380   11.9451 C   0  0  0  0  0  0  0  0  0  0  0  0
   -7.4369  -15.5285   11.3120 C   0  0  0  0  0  0  0  0  0  0  0  0
   -6.7103  -14.6255   12.2217 N   0  0  0  0  0  0  0  0  0  0  0  0
   -5.2725  -14.9011   12.2441 C   0  0  0  0  0  0  0  0  0  0  0  0
   -6.9387  -13.2315   11.8313 C   0  0  0  0  0  0  0  0  0  0  0  0
  -11.9770  -19.7923   11.0342 C   0  0  0  0  0  0  0  0  0  0  0  0
  -12.2215  -20.8263    9.9381 C   0  0  0  0  0  0  0  0  0  0  0  0
  -11.3621  -20.5954    8.9106 F   0  0  0  0  0  0  0  0  0  0  0  0
  -11.9189  -22.0621   10.4153 F   0  0  0  0  0  0  0  0  0  0  0  0
  -13.6530  -20.7882    9.4450 C   0  0  0  0  0  0  0  0  0  0  0  0
  -14.5023  -20.8741   10.5076 F   0  0  0  0  0  0  0  0  0  0  0  0
  -13.9028  -19.5804    8.8655 F   0  0  0  0  0  0  0  0  0  0  0  0
  -13.9324  -21.9061    8.4643 C   0  0  0  0  0  0  0  0  0  0  0  0
  -13.0312  -21.9368    7.4575 F   0  0  0  0  0  0  0  0  0  0  0  0
  -13.8824  -23.1142    9.0761 F   0  0  0  0  0  0  0  0  0  0  0  0
  -15.1589  -21.7971    7.9056 F   0  0  0  0  0  0  0  0  0  0  0  0
  1  2  1  0
  1 10  1  0
  2  3  2  0
  2  4  1  0
  4  5  1  0
  5  6  1  0
  6  7  1  0
  7  8  1  0
  7  9  1  0
 10 11  1  0
 11 12  1  0
 11 13  1  0
 11 14  1  0
 14 15  1  0
 14 16  1  0
 14 17  1  0
 17 18  1  0
 17 19  1  0
 17 20  1  0
M  END
>  <Gold.Gold.Protein.RotatedWaterAtoms>  (218) 


>  <Gold.Id.Protein>  (218) 


>  <Gold.PLP.Chemscore.CHOScore>  (218) 
0.0000

>  <Gold.PLP.Chemscore.Hbond>  (218) 
1.9913

>  <Gold.PLP.Chemscore.Internal.Correction>  (218) 
0.1212

>  <Gold.PLP.Chemscore.Metal>  (218) 
0.0000

>  <Gold.PLP.Fitness>  (218) 
45.0189

>  <Gold.PLP.PLP>  (218) 
-43.2217

>  <Gold.PLP.ligand.clash>  (218) 
0.0000

>  <Gold.PLP.ligand.torsion>  (218) 
2.1488

>  <Gold.PLP.part.buried>  (218) 
-5.3629

>  <Gold.PLP.part.hbond>  (218) 
-2.0000

>  <Gold.PLP.part.metal>  (218) 
0.0000

>  <Gold.PLP.part.nonpolar>  (218) 
-35.5032

>  <Gold.PLP.part.repulsive>  (218) 
0.1836

>  <Gold.Protein.RotatedAtoms>  (218) 


>  <Gold.Protein.RotatedTorsions>  (218) 


>  <Gold.Protein.RotatedWaterAtoms>  (218) 


>  <Gold.Version>  (218) 
5.3.0

>  <PLP.Chemscore.CHOScore>  (218) 


>  <PLP.Chemscore.Hbond>  (218) 


>  <PLP.Chemscore.Internal.Correction>  (218) 


>  <PLP.Chemscore.Metal>  (218) 


>  <PLP.Fitness>  (218) 


>  <PLP.PLP>  (218) 


>  <PLP.ligand.clash>  (218) 


>  <PLP.ligand.torsion>  (218) 


>  <PLP.part.buried>  (218) 


>  <PLP.part.hbond>  (218) 


>  <PLP.part.metal>  (218) 


>  <PLP.part.nonpolar>  (218) 


>  <PLP.part.repulsive>  (218) 


>  <Version>  (218) 


$$$$
218|Compound_158|Compounds_3D_F|sdf|32|dock4|1
     RDKit          3D

 20 19  0  0  0  0  0  0  0  0999 V2000
  -10.6520  -19.1424   11.0513 N   0  0  0  0  0  0  0  0  0  0  0  0
  -10.4003  -17.9218   11.6480 C   0  0  0  0  0  0  0  0  0  0  0  0
  -11.2374  -17.3022   12.2956 O   0  0  0  0  0  0  0  0  0  0  0  0
   -8.9815  -17.4365   11.4191 C   0  0  0  0  0  0  0  0  0  0  0  0
   -8.7736  -16.0030   11.9103 C   0  0  0  0  0  0  0  0  0  0  0  0
   -7.2928  -15.6047   11.8470 C   0  0  0  0  0  0  0  0  0  0  0  0
   -7.0151  -14.3047   12.4825 N   0  0  0  0  0  0  0  0  0  0  0  0
   -5.5811  -14.0182   12.5544 C   0  0  0  0  0  0  0  0  0  0  0  0
   -7.6953  -13.2335   11.7491 C   0  0  0  0  0  0  0  0  0  0  0  0
  -11.9588  -19.7807   11.1676 C   0  0  0  0  0  0  0  0  0  0  0  0
  -12.4453  -20.3995    9.8597 C   0  0  0  0  0  0  0  0  0  0  0  0
  -12.5022  -19.4329    8.9056 F   0  0  0  0  0  0  0  0  0  0  0  0
  -11.5297  -21.3057    9.4273 F   0  0  0  0  0  0  0  0  0  0  0  0
  -13.7998  -21.0568   10.0238 C   0  0  0  0  0  0  0  0  0  0  0  0
  -13.7794  -21.8741   11.1144 F   0  0  0  0  0  0  0  0  0  0  0  0
  -14.7384  -20.1051   10.2893 F   0  0  0  0  0  0  0  0  0  0  0  0
  -14.1880  -21.8440    8.7912 C   0  0  0  0  0  0  0  0  0  0  0  0
  -14.2267  -21.0696    7.6842 F   0  0  0  0  0  0  0  0  0  0  0  0
  -13.2987  -22.8370    8.5477 F   0  0  0  0  0  0  0  0  0  0  0  0
  -15.4023  -22.4247    8.9208 F   0  0  0  0  0  0  0  0  0  0  0  0
  1  2  1  0
  1 10  1  0
  2  3  2  0
  2  4  1  0
  4  5  1  0
  5  6  1  0
  6  7  1  0
  7  8  1  0
  7  9  1  0
 10 11  1  0
 11 12  1  0
 11 13  1  0
 11 14  1  0
 14 15  1  0
 14 16  1  0
 14 17  1  0
 17 18  1  0
 17 19  1  0
 17 20  1  0
M  END
>  <Gold.Gold.Protein.RotatedWaterAtoms>  (219) 


>  <Gold.Id.Protein>  (219) 


>  <Gold.PLP.Chemscore.CHOScore>  (219) 
0.0000

>  <Gold.PLP.Chemscore.Hbond>  (219) 
2.0000

>  <Gold.PLP.Chemscore.Internal.Correction>  (219) 
0.1212

>  <Gold.PLP.Chemscore.Metal>  (219) 
0.0000

>  <Gold.PLP.Fitness>  (219) 
47.3139

>  <Gold.PLP.PLP>  (219) 
-42.0460

>  <Gold.PLP.ligand.clash>  (219) 
0.0151

>  <Gold.PLP.ligand.torsion>  (219) 
0.4191

>  <Gold.PLP.part.buried>  (219) 
-3.3198

>  <Gold.PLP.part.hbond>  (219) 
-2.0000

>  <Gold.PLP.part.metal>  (219) 
0.0000

>  <Gold.PLP.part.nonpolar>  (219) 
-35.4173

>  <Gold.PLP.part.repulsive>  (219) 
0.1961

>  <Gold.Protein.RotatedAtoms>  (219) 


>  <Gold.Protein.RotatedTorsions>  (219) 


>  <Gold.Protein.RotatedWaterAtoms>  (219) 


>  <Gold.Version>  (219) 
5.3.0

>  <PLP.Chemscore.CHOScore>  (219) 


>  <PLP.Chemscore.Hbond>  (219) 


>  <PLP.Chemscore.Internal.Correction>  (219) 


>  <PLP.Chemscore.Metal>  (219) 


>  <PLP.Fitness>  (219) 


>  <PLP.PLP>  (219) 


>  <PLP.ligand.clash>  (219) 


>  <PLP.ligand.torsion>  (219) 


>  <PLP.part.buried>  (219) 


>  <PLP.part.hbond>  (219) 


>  <PLP.part.metal>  (219) 


>  <PLP.part.nonpolar>  (219) 


>  <PLP.part.repulsive>  (219) 


>  <Version>  (219) 


$$$$
219|Compound_158|Compounds_3D_F|sdf|32|dock5|1
     RDKit          3D

 20 19  0  0  0  0  0  0  0  0999 V2000
  -10.0353  -17.0645   11.0131 N   0  0  0  0  0  0  0  0  0  0  0  0
   -8.6893  -16.8312   10.8052 C   0  0  0  0  0  0  0  0  0  0  0  0
   -7.8216  -17.6781   10.9893 O   0  0  0  0  0  0  0  0  0  0  0  0
   -8.4042  -15.4215   10.3234 C   0  0  0  0  0  0  0  0  0  0  0  0
   -7.0476  -14.9072   10.8078 C   0  0  0  0  0  0  0  0  0  0  0  0
   -7.0236  -14.7611   12.3354 C   0  0  0  0  0  0  0  0  0  0  0  0
   -7.2724  -13.3815   12.7891 N   0  0  0  0  0  0  0  0  0  0  0  0
   -6.1463  -12.4916   12.4999 C   0  0  0  0  0  0  0  0  0  0  0  0
   -8.4879  -12.8588   12.1588 C   0  0  0  0  0  0  0  0  0  0  0  0
  -10.5109  -18.3667   11.4678 C   0  0  0  0  0  0  0  0  0  0  0  0
  -11.4092  -19.0681   10.4521 C   0  0  0  0  0  0  0  0  0  0  0  0
  -11.4652  -18.3202    9.3184 F   0  0  0  0  0  0  0  0  0  0  0  0
  -10.8427  -20.2514   10.0982 F   0  0  0  0  0  0  0  0  0  0  0  0
  -12.8019  -19.2945   11.0021 C   0  0  0  0  0  0  0  0  0  0  0  0
  -12.7530  -20.2295   11.9928 F   0  0  0  0  0  0  0  0  0  0  0  0
  -13.2500  -18.1506   11.5917 F   0  0  0  0  0  0  0  0  0  0  0  0
  -13.7621  -19.7346    9.9186 C   0  0  0  0  0  0  0  0  0  0  0  0
  -14.9926  -20.0043   10.4081 F   0  0  0  0  0  0  0  0  0  0  0  0
  -13.9131  -18.7685    8.9804 F   0  0  0  0  0  0  0  0  0  0  0  0
  -13.3303  -20.8438    9.2770 F   0  0  0  0  0  0  0  0  0  0  0  0
  1  2  1  0
  1 10  1  0
  2  3  2  0
  2  4  1  0
  4  5  1  0
  5  6  1  0
  6  7  1  0
  7  8  1  0
  7  9  1  0
 10 11  1  0
 11 12  1  0
 11 13  1  0
 11 14  1  0
 14 15  1  0
 14 16  1  0
 14 17  1  0
 17 18  1  0
 17 19  1  0
 17 20  1  0
M  END
>  <Gold.Gold.Protein.RotatedWaterAtoms>  (220) 


>  <Gold.Id.Protein>  (220) 


>  <Gold.PLP.Chemscore.CHOScore>  (220) 
0.0000

>  <Gold.PLP.Chemscore.Hbond>  (220) 
1.0000

>  <Gold.PLP.Chemscore.Internal.Correction>  (220) 
0.1212

>  <Gold.PLP.Chemscore.Metal>  (220) 
0.0000

>  <Gold.PLP.Fitness>  (220) 
45.5405

>  <Gold.PLP.PLP>  (220) 
-46.7134

>  <Gold.PLP.ligand.clash>  (220) 
0.0000

>  <Gold.PLP.ligand.torsion>  (220) 
2.1471

>  <Gold.PLP.part.buried>  (220) 
-8.4012

>  <Gold.PLP.part.hbond>  (220) 
-1.0000

>  <Gold.PLP.part.metal>  (220) 
0.0000

>  <Gold.PLP.part.nonpolar>  (220) 
-37.8748

>  <Gold.PLP.part.repulsive>  (220) 
0.1793

>  <Gold.Protein.RotatedAtoms>  (220) 


>  <Gold.Protein.RotatedTorsions>  (220) 


>  <Gold.Protein.RotatedWaterAtoms>  (220) 


>  <Gold.Version>  (220) 
5.3.0

>  <PLP.Chemscore.CHOScore>  (220) 


>  <PLP.Chemscore.Hbond>  (220) 


>  <PLP.Chemscore.Internal.Correction>  (220) 


>  <PLP.Chemscore.Metal>  (220) 


>  <PLP.Fitness>  (220) 


>  <PLP.PLP>  (220) 


>  <PLP.ligand.clash>  (220) 


>  <PLP.ligand.torsion>  (220) 


>  <PLP.part.buried>  (220) 


>  <PLP.part.hbond>  (220) 


>  <PLP.part.metal>  (220) 


>  <PLP.part.nonpolar>  (220) 


>  <PLP.part.repulsive>  (220) 


>  <Version>  (220) 


$$$$
220|Compound_158|Compounds_3D_F|sdf|32|dock6|1
     RDKit          3D

 20 19  0  0  0  0  0  0  0  0999 V2000
  -10.4175  -17.5829   10.6026 N   0  0  0  0  0  0  0  0  0  0  0  0
   -9.1050  -17.6522   11.0291 C   0  0  0  0  0  0  0  0  0  0  0  0
   -8.3768  -18.6159   10.8165 O   0  0  0  0  0  0  0  0  0  0  0  0
   -8.6645  -16.4111   11.7815 C   0  0  0  0  0  0  0  0  0  0  0  0
   -8.4841  -15.2066   10.8563 C   0  0  0  0  0  0  0  0  0  0  0  0
   -8.0071  -13.9744   11.6372 C   0  0  0  0  0  0  0  0  0  0  0  0
   -6.5419  -13.9104   11.7794 N   0  0  0  0  0  0  0  0  0  0  0  0
   -6.1056  -12.7013   12.4804 C   0  0  0  0  0  0  0  0  0  0  0  0
   -6.0558  -15.0954   12.4917 C   0  0  0  0  0  0  0  0  0  0  0  0
  -11.0223  -18.6772    9.8508 C   0  0  0  0  0  0  0  0  0  0  0  0
  -12.4022  -19.0739   10.3696 C   0  0  0  0  0  0  0  0  0  0  0  0
  -12.4167  -18.9596   11.7240 F   0  0  0  0  0  0  0  0  0  0  0  0
  -13.3242  -18.1907    9.9045 F   0  0  0  0  0  0  0  0  0  0  0  0
  -12.7688  -20.4842    9.9569 C   0  0  0  0  0  0  0  0  0  0  0  0
  -12.7496  -20.5795    8.5973 F   0  0  0  0  0  0  0  0  0  0  0  0
  -11.8174  -21.3512   10.4044 F   0  0  0  0  0  0  0  0  0  0  0  0
  -14.1291  -20.8820   10.4870 C   0  0  0  0  0  0  0  0  0  0  0  0
  -14.5008  -22.1104   10.0635 F   0  0  0  0  0  0  0  0  0  0  0  0
  -14.1335  -20.9131   11.8417 F   0  0  0  0  0  0  0  0  0  0  0  0
  -15.0952  -20.0147   10.1090 F   0  0  0  0  0  0  0  0  0  0  0  0
  1  2  1  0
  1 10  1  0
  2  3  2  0
  2  4  1  0
  4  5  1  0
  5  6  1  0
  6  7  1  0
  7  8  1  0
  7  9  1  0
 10 11  1  0
 11 12  1  0
 11 13  1  0
 11 14  1  0
 14 15  1  0
 14 16  1  0
 14 17  1  0
 17 18  1  0
 17 19  1  0
 17 20  1  0
M  END
>  <Gold.Gold.Protein.RotatedWaterAtoms>  (221) 


>  <Gold.Id.Protein>  (221) 


>  <Gold.PLP.Chemscore.CHOScore>  (221) 
0.0000

>  <Gold.PLP.Chemscore.Hbond>  (221) 
1.0000

>  <Gold.PLP.Chemscore.Internal.Correction>  (221) 
0.1212

>  <Gold.PLP.Chemscore.Metal>  (221) 
0.0000

>  <Gold.PLP.Fitness>  (221) 
44.4755

>  <Gold.PLP.PLP>  (221) 
-42.8373

>  <Gold.PLP.ligand.clash>  (221) 
0.0000

>  <Gold.PLP.ligand.torsion>  (221) 
0.7415

>  <Gold.PLP.part.buried>  (221) 
-6.4555

>  <Gold.PLP.part.hbond>  (221) 
-1.0000

>  <Gold.PLP.part.metal>  (221) 
0.0000

>  <Gold.PLP.part.nonpolar>  (221) 
-35.6776

>  <Gold.PLP.part.repulsive>  (221) 
0.1626

>  <Gold.Protein.RotatedAtoms>  (221) 


>  <Gold.Protein.RotatedTorsions>  (221) 


>  <Gold.Protein.RotatedWaterAtoms>  (221) 


>  <Gold.Version>  (221) 
5.3.0

>  <PLP.Chemscore.CHOScore>  (221) 


>  <PLP.Chemscore.Hbond>  (221) 


>  <PLP.Chemscore.Internal.Correction>  (221) 


>  <PLP.Chemscore.Metal>  (221) 


>  <PLP.Fitness>  (221) 


>  <PLP.PLP>  (221) 


>  <PLP.ligand.clash>  (221) 


>  <PLP.ligand.torsion>  (221) 


>  <PLP.part.buried>  (221) 


>  <PLP.part.hbond>  (221) 


>  <PLP.part.metal>  (221) 


>  <PLP.part.nonpolar>  (221) 


>  <PLP.part.repulsive>  (221) 


>  <Version>  (221) 


$$$$
221|Compound_158|Compounds_3D_F|sdf|32|dock7|1
     RDKit          3D

 20 19  0  0  0  0  0  0  0  0999 V2000
  -11.3641  -19.6470   11.5192 N   0  0  0  0  0  0  0  0  0  0  0  0
  -10.8348  -18.4138   11.8485 C   0  0  0  0  0  0  0  0  0  0  0  0
  -11.4718  -17.5388   12.4252 O   0  0  0  0  0  0  0  0  0  0  0  0
   -9.3863  -18.2630   11.4244 C   0  0  0  0  0  0  0  0  0  0  0  0
   -8.8561  -16.8491   11.6672 C   0  0  0  0  0  0  0  0  0  0  0  0
   -7.3405  -16.7782   11.4362 C   0  0  0  0  0  0  0  0  0  0  0  0
   -6.6162  -16.1256   12.5409 N   0  0  0  0  0  0  0  0  0  0  0  0
   -5.1809  -16.4126   12.5085 C   0  0  0  0  0  0  0  0  0  0  0  0
   -6.8300  -14.6764   12.4925 C   0  0  0  0  0  0  0  0  0  0  0  0
  -12.7427  -19.9870   11.8542 C   0  0  0  0  0  0  0  0  0  0  0  0
  -13.3098  -21.1161   10.9976 C   0  0  0  0  0  0  0  0  0  0  0  0
  -12.4832  -22.1922   11.0780 F   0  0  0  0  0  0  0  0  0  0  0  0
  -14.5014  -21.5137   11.5157 F   0  0  0  0  0  0  0  0  0  0  0  0
  -13.4792  -20.6898    9.5542 C   0  0  0  0  0  0  0  0  0  0  0  0
  -14.3517  -19.6447    9.4882 F   0  0  0  0  0  0  0  0  0  0  0  0
  -12.2938  -20.2158    9.0776 F   0  0  0  0  0  0  0  0  0  0  0  0
  -13.9698  -21.8322    8.6917 C   0  0  0  0  0  0  0  0  0  0  0  0
  -14.1167  -21.4669    7.3989 F   0  0  0  0  0  0  0  0  0  0  0  0
  -13.0963  -22.8680    8.7128 F   0  0  0  0  0  0  0  0  0  0  0  0
  -15.1614  -22.3122    9.1140 F   0  0  0  0  0  0  0  0  0  0  0  0
  1  2  1  0
  1 10  1  0
  2  3  2  0
  2  4  1  0
  4  5  1  0
  5  6  1  0
  6  7  1  0
  7  8  1  0
  7  9  1  0
 10 11  1  0
 11 12  1  0
 11 13  1  0
 11 14  1  0
 14 15  1  0
 14 16  1  0
 14 17  1  0
 17 18  1  0
 17 19  1  0
 17 20  1  0
M  END
>  <Gold.Gold.Protein.RotatedWaterAtoms>  (222) 


>  <Gold.Id.Protein>  (222) 


>  <Gold.PLP.Chemscore.CHOScore>  (222) 
0.0000

>  <Gold.PLP.Chemscore.Hbond>  (222) 
1.9760

>  <Gold.PLP.Chemscore.Internal.Correction>  (222) 
0.1212

>  <Gold.PLP.Chemscore.Metal>  (222) 
0.0000

>  <Gold.PLP.Fitness>  (222) 
46.8777

>  <Gold.PLP.PLP>  (222) 
-42.3604

>  <Gold.PLP.ligand.clash>  (222) 
0.0000

>  <Gold.PLP.ligand.torsion>  (222) 
0.7659

>  <Gold.PLP.part.buried>  (222) 
-5.9509

>  <Gold.PLP.part.hbond>  (222) 
-2.0000

>  <Gold.PLP.part.metal>  (222) 
0.0000

>  <Gold.PLP.part.nonpolar>  (222) 
-34.8545

>  <Gold.PLP.part.repulsive>  (222) 
0.1560

>  <Gold.Protein.RotatedAtoms>  (222) 


>  <Gold.Protein.RotatedTorsions>  (222) 


>  <Gold.Protein.RotatedWaterAtoms>  (222) 


>  <Gold.Version>  (222) 
5.3.0

>  <PLP.Chemscore.CHOScore>  (222) 


>  <PLP.Chemscore.Hbond>  (222) 


>  <PLP.Chemscore.Internal.Correction>  (222) 


>  <PLP.Chemscore.Metal>  (222) 


>  <PLP.Fitness>  (222) 


>  <PLP.PLP>  (222) 


>  <PLP.ligand.clash>  (222) 


>  <PLP.ligand.torsion>  (222) 


>  <PLP.part.buried>  (222) 


>  <PLP.part.hbond>  (222) 


>  <PLP.part.metal>  (222) 


>  <PLP.part.nonpolar>  (222) 


>  <PLP.part.repulsive>  (222) 


>  <Version>  (222) 


$$$$
222|Compound_158|Compounds_3D_F|sdf|32|dock8|1
     RDKit          3D

 20 19  0  0  0  0  0  0  0  0999 V2000
  -10.2166  -17.2598   10.9554 N   0  0  0  0  0  0  0  0  0  0  0  0
   -8.9502  -16.9823   11.4333 C   0  0  0  0  0  0  0  0  0  0  0  0
   -8.0539  -17.8172   11.4930 O   0  0  0  0  0  0  0  0  0  0  0  0
   -8.7895  -15.5386   11.8701 C   0  0  0  0  0  0  0  0  0  0  0  0
   -7.6482  -14.8347   11.1343 C   0  0  0  0  0  0  0  0  0  0  0  0
   -7.6320  -13.3318   11.4452 C   0  0  0  0  0  0  0  0  0  0  0  0
   -6.2749  -12.7993   11.6587 N   0  0  0  0  0  0  0  0  0  0  0  0
   -6.2913  -11.4733   12.2795 C   0  0  0  0  0  0  0  0  0  0  0  0
   -5.4998  -13.7234   12.4913 C   0  0  0  0  0  0  0  0  0  0  0  0
  -10.5639  -18.5936   10.4769 C   0  0  0  0  0  0  0  0  0  0  0  0
  -12.0697  -18.8311   10.3955 C   0  0  0  0  0  0  0  0  0  0  0  0
  -12.6332  -18.5208   11.5930 F   0  0  0  0  0  0  0  0  0  0  0  0
  -12.6081  -17.9734    9.4894 F   0  0  0  0  0  0  0  0  0  0  0  0
  -12.3888  -20.2630   10.0194 C   0  0  0  0  0  0  0  0  0  0  0  0
  -11.6360  -20.6290    8.9437 F   0  0  0  0  0  0  0  0  0  0  0  0
  -12.0172  -21.0936   11.0338 F   0  0  0  0  0  0  0  0  0  0  0  0
  -13.8592  -20.4414    9.7100 C   0  0  0  0  0  0  0  0  0  0  0  0
  -14.6478  -19.9966   10.7134 F   0  0  0  0  0  0  0  0  0  0  0  0
  -14.2095  -19.7523    8.5971 F   0  0  0  0  0  0  0  0  0  0  0  0
  -14.1783  -21.7367    9.4890 F   0  0  0  0  0  0  0  0  0  0  0  0
  1  2  1  0
  1 10  1  0
  2  3  2  0
  2  4  1  0
  4  5  1  0
  5  6  1  0
  6  7  1  0
  7  8  1  0
  7  9  1  0
 10 11  1  0
 11 12  1  0
 11 13  1  0
 11 14  1  0
 14 15  1  0
 14 16  1  0
 14 17  1  0
 17 18  1  0
 17 19  1  0
 17 20  1  0
M  END
>  <Gold.Gold.Protein.RotatedWaterAtoms>  (223) 


>  <Gold.Id.Protein>  (223) 


>  <Gold.PLP.Chemscore.CHOScore>  (223) 
0.0000

>  <Gold.PLP.Chemscore.Hbond>  (223) 
1.0000

>  <Gold.PLP.Chemscore.Internal.Correction>  (223) 
0.1212

>  <Gold.PLP.Chemscore.Metal>  (223) 
0.0000

>  <Gold.PLP.Fitness>  (223) 
47.7698

>  <Gold.PLP.PLP>  (223) 
-46.4185

>  <Gold.PLP.ligand.clash>  (223) 
0.0000

>  <Gold.PLP.ligand.torsion>  (223) 
0.8849

>  <Gold.PLP.part.buried>  (223) 
-4.1146

>  <Gold.PLP.part.hbond>  (223) 
-2.0000

>  <Gold.PLP.part.metal>  (223) 
0.0000

>  <Gold.PLP.part.nonpolar>  (223) 
-40.0530

>  <Gold.PLP.part.repulsive>  (223) 
0.2467

>  <Gold.Protein.RotatedAtoms>  (223) 


>  <Gold.Protein.RotatedTorsions>  (223) 


>  <Gold.Protein.RotatedWaterAtoms>  (223) 


>  <Gold.Version>  (223) 
5.3.0

>  <PLP.Chemscore.CHOScore>  (223) 


>  <PLP.Chemscore.Hbond>  (223) 


>  <PLP.Chemscore.Internal.Correction>  (223) 


>  <PLP.Chemscore.Metal>  (223) 


>  <PLP.Fitness>  (223) 


>  <PLP.PLP>  (223) 


>  <PLP.ligand.clash>  (223) 


>  <PLP.ligand.torsion>  (223) 


>  <PLP.part.buried>  (223) 


>  <PLP.part.hbond>  (223) 


>  <PLP.part.metal>  (223) 


>  <PLP.part.nonpolar>  (223) 


>  <PLP.part.repulsive>  (223) 


>  <Version>  (223) 


$$$$
223|Compound_158|Compounds_3D_F|sdf|32|dock9|1
     RDKit          3D

 20 19  0  0  0  0  0  0  0  0999 V2000
   -9.6962  -18.2294   11.5654 N   0  0  0  0  0  0  0  0  0  0  0  0
   -8.9214  -17.2016   11.0628 C   0  0  0  0  0  0  0  0  0  0  0  0
   -9.3884  -16.2230   10.4898 O   0  0  0  0  0  0  0  0  0  0  0  0
   -7.4382  -17.4130   11.2996 C   0  0  0  0  0  0  0  0  0  0  0  0
   -6.8209  -16.2948   12.1410 C   0  0  0  0  0  0  0  0  0  0  0  0
   -7.1188  -14.9165   11.5352 C   0  0  0  0  0  0  0  0  0  0  0  0
   -6.9168  -13.8098   12.4867 N   0  0  0  0  0  0  0  0  0  0  0  0
   -5.5027  -13.6054   12.8067 C   0  0  0  0  0  0  0  0  0  0  0  0
   -7.4826  -12.5722   11.9426 C   0  0  0  0  0  0  0  0  0  0  0  0
  -11.1500  -18.2028   11.4450 C   0  0  0  0  0  0  0  0  0  0  0  0
  -11.7172  -19.4245   10.7266 C   0  0  0  0  0  0  0  0  0  0  0  0
  -10.9293  -19.7165    9.6581 F   0  0  0  0  0  0  0  0  0  0  0  0
  -11.6482  -20.5002   11.5540 F   0  0  0  0  0  0  0  0  0  0  0  0
  -13.1459  -19.1949   10.2795 C   0  0  0  0  0  0  0  0  0  0  0  0
  -13.8876  -18.7555   11.3352 F   0  0  0  0  0  0  0  0  0  0  0  0
  -13.1787  -18.1914    9.3581 F   0  0  0  0  0  0  0  0  0  0  0  0
  -13.7564  -20.4537    9.7030 C   0  0  0  0  0  0  0  0  0  0  0  0
  -13.8318  -21.4470   10.6163 F   0  0  0  0  0  0  0  0  0  0  0  0
  -15.0174  -20.2255    9.2625 F   0  0  0  0  0  0  0  0  0  0  0  0
  -13.0501  -20.9251    8.6506 F   0  0  0  0  0  0  0  0  0  0  0  0
  1  2  1  0
  1 10  1  0
  2  3  2  0
  2  4  1  0
  4  5  1  0
  5  6  1  0
  6  7  1  0
  7  8  1  0
  7  9  1  0
 10 11  1  0
 11 12  1  0
 11 13  1  0
 11 14  1  0
 14 15  1  0
 14 16  1  0
 14 17  1  0
 17 18  1  0
 17 19  1  0
 17 20  1  0
M  END
>  <Gold.Gold.Protein.RotatedWaterAtoms>  (224) 


>  <Gold.Id.Protein>  (224) 


>  <Gold.PLP.Chemscore.CHOScore>  (224) 
0.0000

>  <Gold.PLP.Chemscore.Hbond>  (224) 
0.1529

>  <Gold.PLP.Chemscore.Internal.Correction>  (224) 
0.1212

>  <Gold.PLP.Chemscore.Metal>  (224) 
0.0000

>  <Gold.PLP.Fitness>  (224) 
46.1646

>  <Gold.PLP.PLP>  (224) 
-46.4707

>  <Gold.PLP.ligand.clash>  (224) 
0.0000

>  <Gold.PLP.ligand.torsion>  (224) 
0.4429

>  <Gold.PLP.part.buried>  (224) 
-6.4112

>  <Gold.PLP.part.hbond>  (224) 
-1.0000

>  <Gold.PLP.part.metal>  (224) 
0.0000

>  <Gold.PLP.part.nonpolar>  (224) 
-38.7649

>  <Gold.PLP.part.repulsive>  (224) 
0.2561

>  <Gold.Protein.RotatedAtoms>  (224) 


>  <Gold.Protein.RotatedTorsions>  (224) 


>  <Gold.Protein.RotatedWaterAtoms>  (224) 


>  <Gold.Version>  (224) 
5.3.0

>  <PLP.Chemscore.CHOScore>  (224) 


>  <PLP.Chemscore.Hbond>  (224) 


>  <PLP.Chemscore.Internal.Correction>  (224) 


>  <PLP.Chemscore.Metal>  (224) 


>  <PLP.Fitness>  (224) 


>  <PLP.PLP>  (224) 


>  <PLP.ligand.clash>  (224) 


>  <PLP.ligand.torsion>  (224) 


>  <PLP.part.buried>  (224) 


>  <PLP.part.hbond>  (224) 


>  <PLP.part.metal>  (224) 


>  <PLP.part.nonpolar>  (224) 


>  <PLP.part.repulsive>  (224) 


>  <Version>  (224) 


$$$$
224|Compound_159|Compounds_3D_F|sdf|33|dock1|1
     RDKit          3D

 17 16  0  0  0  0  0  0  0  0999 V2000
   -8.2273  -12.7242   12.1429 O   0  0  0  0  0  0  0  0  0  0  0  0
   -8.8802  -13.9037   12.1703 C   0  0  0  0  0  0  0  0  0  0  0  0
  -10.0564  -13.9749   12.4916 O   0  0  0  0  0  0  0  0  0  0  0  0
   -7.9994  -15.0639   11.7627 C   0  0  0  0  0  0  0  0  0  0  0  0
   -8.7384  -16.3086   11.8914 N   0  0  0  0  0  0  0  0  0  0  0  0
   -9.0987  -17.0484   10.7852 C   0  0  0  0  0  0  0  0  0  0  0  0
   -8.8226  -16.7167    9.6317 O   0  0  0  0  0  0  0  0  0  0  0  0
   -9.8546  -18.3458   11.1037 C   0  0  0  0  0  0  0  0  0  0  0  0
  -11.2261  -18.1755   10.6377 N   0  0  0  0  0  0  0  0  0  0  0  0
  -12.3264  -18.4650   11.4151 C   0  0  0  0  0  0  0  0  0  0  0  0
  -12.2593  -18.8832   12.5664 O   0  0  0  0  0  0  0  0  0  0  0  0
  -13.6322  -18.2022   10.6899 C   0  0  0  0  0  0  0  0  0  0  0  0
  -13.7207  -18.9462    9.3594 C   0  0  0  0  0  0  0  0  0  0  0  0
  -14.3441  -20.3315    9.5433 C   0  0  0  0  0  0  0  0  0  0  0  0
  -15.0007  -20.7464    8.3038 N   0  0  0  0  0  0  0  0  0  0  0  0
  -14.1696  -21.6809    7.5576 C   0  0  0  0  0  0  0  0  0  0  0  0
   -9.1794  -19.5308   10.4241 C   0  0  0  0  0  0  0  0  0  0  0  0
  1  2  1  0
  2  3  2  0
  2  4  1  0
  4  5  1  0
  5  6  1  0
  6  7  2  0
  6  8  1  0
  8  9  1  0
  8 17  1  0
  9 10  1  0
 10 11  2  0
 10 12  1  0
 12 13  1  0
 13 14  1  0
 14 15  1  0
 15 16  1  0
M  END
>  <Gold.Gold.Protein.RotatedWaterAtoms>  (225) 


>  <Gold.Id.Protein>  (225) 


>  <Gold.PLP.Chemscore.CHOScore>  (225) 
0.0000

>  <Gold.PLP.Chemscore.Hbond>  (225) 
2.7579

>  <Gold.PLP.Chemscore.Internal.Correction>  (225) 
0.2393

>  <Gold.PLP.Chemscore.Metal>  (225) 
0.0000

>  <Gold.PLP.Fitness>  (225) 
44.6427

>  <Gold.PLP.PLP>  (225) 
-38.0566

>  <Gold.PLP.ligand.clash>  (225) 
0.0000

>  <Gold.PLP.ligand.torsion>  (225) 
0.9634

>  <Gold.PLP.part.buried>  (225) 
-8.2655

>  <Gold.PLP.part.hbond>  (225) 
-5.7624

>  <Gold.PLP.part.metal>  (225) 
0.0000

>  <Gold.PLP.part.nonpolar>  (225) 
-25.7741

>  <Gold.PLP.part.repulsive>  (225) 
0.3671

>  <Gold.Protein.RotatedAtoms>  (225) 


>  <Gold.Protein.RotatedTorsions>  (225) 


>  <Gold.Protein.RotatedWaterAtoms>  (225) 


>  <Gold.Version>  (225) 
5.3.0

>  <PLP.Chemscore.CHOScore>  (225) 


>  <PLP.Chemscore.Hbond>  (225) 


>  <PLP.Chemscore.Internal.Correction>  (225) 


>  <PLP.Chemscore.Metal>  (225) 


>  <PLP.Fitness>  (225) 


>  <PLP.PLP>  (225) 


>  <PLP.ligand.clash>  (225) 


>  <PLP.ligand.torsion>  (225) 


>  <PLP.part.buried>  (225) 


>  <PLP.part.hbond>  (225) 


>  <PLP.part.metal>  (225) 


>  <PLP.part.nonpolar>  (225) 


>  <PLP.part.repulsive>  (225) 


>  <Version>  (225) 


$$$$
225|Compound_159|Compounds_3D_F|sdf|33|dock2|1
     RDKit          3D

 17 16  0  0  0  0  0  0  0  0999 V2000
  -14.1055  -20.5251   14.0779 O   0  0  0  0  0  0  0  0  0  0  0  0
  -13.0204  -20.4739   13.2790 C   0  0  0  0  0  0  0  0  0  0  0  0
  -12.2003  -21.3789   13.2576 O   0  0  0  0  0  0  0  0  0  0  0  0
  -12.9678  -19.2084   12.4521 C   0  0  0  0  0  0  0  0  0  0  0  0
  -11.8025  -19.2386   11.5842 N   0  0  0  0  0  0  0  0  0  0  0  0
  -10.8396  -18.2534   11.6392 C   0  0  0  0  0  0  0  0  0  0  0  0
  -10.8942  -17.2980   12.4144 O   0  0  0  0  0  0  0  0  0  0  0  0
   -9.6664  -18.4530   10.6695 C   0  0  0  0  0  0  0  0  0  0  0  0
   -8.4757  -17.9051   11.3091 N   0  0  0  0  0  0  0  0  0  0  0  0
   -8.3384  -16.5713   11.6268 C   0  0  0  0  0  0  0  0  0  0  0  0
   -9.1996  -15.7249   11.4109 O   0  0  0  0  0  0  0  0  0  0  0  0
   -7.0042  -16.2668   12.2804 C   0  0  0  0  0  0  0  0  0  0  0  0
   -6.7118  -14.7693   12.3398 C   0  0  0  0  0  0  0  0  0  0  0  0
   -5.2088  -14.5055   12.4533 C   0  0  0  0  0  0  0  0  0  0  0  0
   -4.9815  -13.2066   13.0866 N   0  0  0  0  0  0  0  0  0  0  0  0
   -5.6414  -12.1400   12.3467 C   0  0  0  0  0  0  0  0  0  0  0  0
   -9.4938  -19.9323   10.3470 C   0  0  0  0  0  0  0  0  0  0  0  0
  1  2  1  0
  2  3  2  0
  2  4  1  0
  4  5  1  0
  5  6  1  0
  6  7  2  0
  6  8  1  0
  8  9  1  0
  8 17  1  0
  9 10  1  0
 10 11  2  0
 10 12  1  0
 12 13  1  0
 13 14  1  0
 14 15  1  0
 15 16  1  0
M  END
>  <Gold.Gold.Protein.RotatedWaterAtoms>  (226) 


>  <Gold.Id.Protein>  (226) 


>  <Gold.PLP.Chemscore.CHOScore>  (226) 
0.0000

>  <Gold.PLP.Chemscore.Hbond>  (226) 
3.8952

>  <Gold.PLP.Chemscore.Internal.Correction>  (226) 
0.2393

>  <Gold.PLP.Chemscore.Metal>  (226) 
0.0000

>  <Gold.PLP.Fitness>  (226) 
47.1054

>  <Gold.PLP.PLP>  (226) 
-38.9784

>  <Gold.PLP.ligand.clash>  (226) 
1.4577

>  <Gold.PLP.ligand.torsion>  (226) 
1.1701

>  <Gold.PLP.part.buried>  (226) 
-8.1514

>  <Gold.PLP.part.hbond>  (226) 
-5.5681

>  <Gold.PLP.part.metal>  (226) 
0.0000

>  <Gold.PLP.part.nonpolar>  (226) 
-26.7719

>  <Gold.PLP.part.repulsive>  (226) 
0.2735

>  <Gold.Protein.RotatedAtoms>  (226) 


>  <Gold.Protein.RotatedTorsions>  (226) 


>  <Gold.Protein.RotatedWaterAtoms>  (226) 


>  <Gold.Version>  (226) 
5.3.0

>  <PLP.Chemscore.CHOScore>  (226) 


>  <PLP.Chemscore.Hbond>  (226) 


>  <PLP.Chemscore.Internal.Correction>  (226) 


>  <PLP.Chemscore.Metal>  (226) 


>  <PLP.Fitness>  (226) 


>  <PLP.PLP>  (226) 


>  <PLP.ligand.clash>  (226) 


>  <PLP.ligand.torsion>  (226) 


>  <PLP.part.buried>  (226) 


>  <PLP.part.hbond>  (226) 


>  <PLP.part.metal>  (226) 


>  <PLP.part.nonpolar>  (226) 


>  <PLP.part.repulsive>  (226) 


>  <Version>  (226) 


$$$$
226|Compound_159|Compounds_3D_F|sdf|33|dock3|1
     RDKit          3D

 17 16  0  0  0  0  0  0  0  0999 V2000
  -14.1301  -22.8184   11.9076 O   0  0  0  0  0  0  0  0  0  0  0  0
  -13.9049  -23.5236   10.7806 C   0  0  0  0  0  0  0  0  0  0  0  0
  -14.4445  -24.6015   10.5836 O   0  0  0  0  0  0  0  0  0  0  0  0
  -12.9458  -22.8261    9.8417 C   0  0  0  0  0  0  0  0  0  0  0  0
  -12.7441  -21.4545   10.2777 N   0  0  0  0  0  0  0  0  0  0  0  0
  -13.2049  -20.3888    9.5343 C   0  0  0  0  0  0  0  0  0  0  0  0
  -13.8118  -20.5194    8.4707 O   0  0  0  0  0  0  0  0  0  0  0  0
  -12.9261  -19.0116   10.1524 C   0  0  0  0  0  0  0  0  0  0  0  0
  -11.4803  -18.8836   10.2946 N   0  0  0  0  0  0  0  0  0  0  0  0
  -10.8839  -18.1906   11.3256 C   0  0  0  0  0  0  0  0  0  0  0  0
  -11.5059  -17.6257   12.2194 O   0  0  0  0  0  0  0  0  0  0  0  0
   -9.3701  -18.2097   11.2359 C   0  0  0  0  0  0  0  0  0  0  0  0
   -8.7487  -16.8556   11.5702 C   0  0  0  0  0  0  0  0  0  0  0  0
   -7.2208  -16.9226   11.5180 C   0  0  0  0  0  0  0  0  0  0  0  0
   -6.6672  -15.5689   11.4965 N   0  0  0  0  0  0  0  0  0  0  0  0
   -5.6357  -15.4082   12.5118 C   0  0  0  0  0  0  0  0  0  0  0  0
  -13.4977  -17.9103    9.2677 C   0  0  0  0  0  0  0  0  0  0  0  0
  1  2  1  0
  2  3  2  0
  2  4  1  0
  4  5  1  0
  5  6  1  0
  6  7  2  0
  6  8  1  0
  8  9  1  0
  8 17  1  0
  9 10  1  0
 10 11  2  0
 10 12  1  0
 12 13  1  0
 13 14  1  0
 14 15  1  0
 15 16  1  0
M  END
>  <Gold.Gold.Protein.RotatedWaterAtoms>  (227) 


>  <Gold.Id.Protein>  (227) 


>  <Gold.PLP.Chemscore.CHOScore>  (227) 
0.0000

>  <Gold.PLP.Chemscore.Hbond>  (227) 
3.8020

>  <Gold.PLP.Chemscore.Internal.Correction>  (227) 
0.2195

>  <Gold.PLP.Chemscore.Metal>  (227) 
0.0000

>  <Gold.PLP.Fitness>  (227) 
40.2427

>  <Gold.PLP.PLP>  (227) 
-30.9921

>  <Gold.PLP.ligand.clash>  (227) 
0.0000

>  <Gold.PLP.ligand.torsion>  (227) 
1.1874

>  <Gold.PLP.part.buried>  (227) 
-4.9934

>  <Gold.PLP.part.hbond>  (227) 
-3.8947

>  <Gold.PLP.part.metal>  (227) 
0.0000

>  <Gold.PLP.part.nonpolar>  (227) 
-22.3739

>  <Gold.PLP.part.repulsive>  (227) 
0.2072

>  <Gold.Protein.RotatedAtoms>  (227) 


>  <Gold.Protein.RotatedTorsions>  (227) 


>  <Gold.Protein.RotatedWaterAtoms>  (227) 


>  <Gold.Version>  (227) 
5.3.0

>  <PLP.Chemscore.CHOScore>  (227) 


>  <PLP.Chemscore.Hbond>  (227) 


>  <PLP.Chemscore.Internal.Correction>  (227) 


>  <PLP.Chemscore.Metal>  (227) 


>  <PLP.Fitness>  (227) 


>  <PLP.PLP>  (227) 


>  <PLP.ligand.clash>  (227) 


>  <PLP.ligand.torsion>  (227) 


>  <PLP.part.buried>  (227) 


>  <PLP.part.hbond>  (227) 


>  <PLP.part.metal>  (227) 


>  <PLP.part.nonpolar>  (227) 


>  <PLP.part.repulsive>  (227) 


>  <Version>  (227) 


$$$$
227|Compound_159|Compounds_3D_F|sdf|33|dock4|1
     RDKit          3D

 17 16  0  0  0  0  0  0  0  0999 V2000
   -5.2245  -13.5505   11.9245 O   0  0  0  0  0  0  0  0  0  0  0  0
   -5.8939  -14.7011   12.1397 C   0  0  0  0  0  0  0  0  0  0  0  0
   -5.3075  -15.7452   12.3800 O   0  0  0  0  0  0  0  0  0  0  0  0
   -7.3936  -14.5248   12.0525 C   0  0  0  0  0  0  0  0  0  0  0  0
   -8.0472  -15.8154   12.1904 N   0  0  0  0  0  0  0  0  0  0  0  0
   -8.6299  -16.4451   11.1111 C   0  0  0  0  0  0  0  0  0  0  0  0
   -8.6351  -15.9710    9.9745 O   0  0  0  0  0  0  0  0  0  0  0  0
   -9.2549  -17.8104   11.4300 C   0  0  0  0  0  0  0  0  0  0  0  0
  -10.5669  -17.8471   10.7940 N   0  0  0  0  0  0  0  0  0  0  0  0
  -11.6706  -18.4289   11.3789 C   0  0  0  0  0  0  0  0  0  0  0  0
  -11.6581  -18.9608   12.4842 O   0  0  0  0  0  0  0  0  0  0  0  0
  -12.9066  -18.3322   10.5054 C   0  0  0  0  0  0  0  0  0  0  0  0
  -13.3275  -19.6860    9.9381 C   0  0  0  0  0  0  0  0  0  0  0  0
  -14.6676  -19.5841    9.2064 C   0  0  0  0  0  0  0  0  0  0  0  0
  -15.0879  -20.9114    8.7580 N   0  0  0  0  0  0  0  0  0  0  0  0
  -14.1730  -21.4404    7.7561 C   0  0  0  0  0  0  0  0  0  0  0  0
   -8.3587  -18.9331   10.9214 C   0  0  0  0  0  0  0  0  0  0  0  0
  1  2  1  0
  2  3  2  0
  2  4  1  0
  4  5  1  0
  5  6  1  0
  6  7  2  0
  6  8  1  0
  8  9  1  0
  8 17  1  0
  9 10  1  0
 10 11  2  0
 10 12  1  0
 12 13  1  0
 13 14  1  0
 14 15  1  0
 15 16  1  0
M  END
>  <Gold.Gold.Protein.RotatedWaterAtoms>  (228) 


>  <Gold.Id.Protein>  (228) 


>  <Gold.PLP.Chemscore.CHOScore>  (228) 
0.0000

>  <Gold.PLP.Chemscore.Hbond>  (228) 
1.9760

>  <Gold.PLP.Chemscore.Internal.Correction>  (228) 
0.2195

>  <Gold.PLP.Chemscore.Metal>  (228) 
0.0000

>  <Gold.PLP.Fitness>  (228) 
41.3207

>  <Gold.PLP.PLP>  (228) 
-36.9612

>  <Gold.PLP.ligand.clash>  (228) 
0.0000

>  <Gold.PLP.ligand.torsion>  (228) 
0.8939

>  <Gold.PLP.part.buried>  (228) 
-7.5651

>  <Gold.PLP.part.hbond>  (228) 
-4.6346

>  <Gold.PLP.part.metal>  (228) 
0.0000

>  <Gold.PLP.part.nonpolar>  (228) 
-25.4455

>  <Gold.PLP.part.repulsive>  (228) 
0.3259

>  <Gold.Protein.RotatedAtoms>  (228) 


>  <Gold.Protein.RotatedTorsions>  (228) 


>  <Gold.Protein.RotatedWaterAtoms>  (228) 


>  <Gold.Version>  (228) 
5.3.0

>  <PLP.Chemscore.CHOScore>  (228) 


>  <PLP.Chemscore.Hbond>  (228) 


>  <PLP.Chemscore.Internal.Correction>  (228) 


>  <PLP.Chemscore.Metal>  (228) 


>  <PLP.Fitness>  (228) 


>  <PLP.PLP>  (228) 


>  <PLP.ligand.clash>  (228) 


>  <PLP.ligand.torsion>  (228) 


>  <PLP.part.buried>  (228) 


>  <PLP.part.hbond>  (228) 


>  <PLP.part.metal>  (228) 


>  <PLP.part.nonpolar>  (228) 


>  <PLP.part.repulsive>  (228) 


>  <Version>  (228) 


$$$$
228|Compound_159|Compounds_3D_F|sdf|33|dock5|1
     RDKit          3D

 17 16  0  0  0  0  0  0  0  0999 V2000
  -11.9853  -22.7368   11.8846 O   0  0  0  0  0  0  0  0  0  0  0  0
  -13.3005  -22.6959   12.1789 C   0  0  0  0  0  0  0  0  0  0  0  0
  -14.0599  -23.5880   11.8334 O   0  0  0  0  0  0  0  0  0  0  0  0
  -13.6818  -21.4587   12.9611 C   0  0  0  0  0  0  0  0  0  0  0  0
  -13.1948  -20.2749   12.2731 N   0  0  0  0  0  0  0  0  0  0  0  0
  -13.7256  -19.8764   11.0647 C   0  0  0  0  0  0  0  0  0  0  0  0
  -14.6348  -20.4803   10.4943 O   0  0  0  0  0  0  0  0  0  0  0  0
  -13.1102  -18.5931   10.4896 C   0  0  0  0  0  0  0  0  0  0  0  0
  -11.6639  -18.7786   10.4627 N   0  0  0  0  0  0  0  0  0  0  0  0
  -10.8112  -18.1768   11.3625 C   0  0  0  0  0  0  0  0  0  0  0  0
  -11.1836  -17.4394   12.2693 O   0  0  0  0  0  0  0  0  0  0  0  0
   -9.3589  -18.5337   11.1106 C   0  0  0  0  0  0  0  0  0  0  0  0
   -8.5341  -17.3332   10.6522 C   0  0  0  0  0  0  0  0  0  0  0  0
   -8.5131  -16.2386   11.7212 C   0  0  0  0  0  0  0  0  0  0  0  0
   -7.8711  -15.0379   11.1866 N   0  0  0  0  0  0  0  0  0  0  0  0
   -7.6149  -14.0668   12.2411 C   0  0  0  0  0  0  0  0  0  0  0  0
  -13.6621  -18.3217    9.0953 C   0  0  0  0  0  0  0  0  0  0  0  0
  1  2  1  0
  2  3  2  0
  2  4  1  0
  4  5  1  0
  5  6  1  0
  6  7  2  0
  6  8  1  0
  8  9  1  0
  8 17  1  0
  9 10  1  0
 10 11  2  0
 10 12  1  0
 12 13  1  0
 13 14  1  0
 14 15  1  0
 15 16  1  0
M  END
>  <Gold.Gold.Protein.RotatedWaterAtoms>  (229) 


>  <Gold.Id.Protein>  (229) 


>  <Gold.PLP.Chemscore.CHOScore>  (229) 
0.0000

>  <Gold.PLP.Chemscore.Hbond>  (229) 
3.8080

>  <Gold.PLP.Chemscore.Internal.Correction>  (229) 
0.2116

>  <Gold.PLP.Chemscore.Metal>  (229) 
0.0000

>  <Gold.PLP.Fitness>  (229) 
41.2309

>  <Gold.PLP.PLP>  (229) 
-30.5266

>  <Gold.PLP.ligand.clash>  (229) 
0.0000

>  <Gold.PLP.ligand.torsion>  (229) 
0.4656

>  <Gold.PLP.part.buried>  (229) 
-4.7382

>  <Gold.PLP.part.hbond>  (229) 
-4.0000

>  <Gold.PLP.part.metal>  (229) 
0.0000

>  <Gold.PLP.part.nonpolar>  (229) 
-22.5585

>  <Gold.PLP.part.repulsive>  (229) 
0.2417

>  <Gold.Protein.RotatedAtoms>  (229) 


>  <Gold.Protein.RotatedTorsions>  (229) 


>  <Gold.Protein.RotatedWaterAtoms>  (229) 


>  <Gold.Version>  (229) 
5.3.0

>  <PLP.Chemscore.CHOScore>  (229) 


>  <PLP.Chemscore.Hbond>  (229) 


>  <PLP.Chemscore.Internal.Correction>  (229) 


>  <PLP.Chemscore.Metal>  (229) 


>  <PLP.Fitness>  (229) 


>  <PLP.PLP>  (229) 


>  <PLP.ligand.clash>  (229) 


>  <PLP.ligand.torsion>  (229) 


>  <PLP.part.buried>  (229) 


>  <PLP.part.hbond>  (229) 


>  <PLP.part.metal>  (229) 


>  <PLP.part.nonpolar>  (229) 


>  <PLP.part.repulsive>  (229) 


>  <Version>  (229) 


$$$$
229|Compound_159|Compounds_3D_F|sdf|33|dock6|1
     RDKit          3D

 17 16  0  0  0  0  0  0  0  0999 V2000
  -15.6893  -21.4994    7.2880 O   0  0  0  0  0  0  0  0  0  0  0  0
  -14.7985  -21.4321    8.2980 C   0  0  0  0  0  0  0  0  0  0  0  0
  -14.3361  -22.4403    8.8095 O   0  0  0  0  0  0  0  0  0  0  0  0
  -14.4651  -20.0080    8.6836 C   0  0  0  0  0  0  0  0  0  0  0  0
  -13.4935  -20.0079    9.7644 N   0  0  0  0  0  0  0  0  0  0  0  0
  -12.6513  -18.9366    9.9738 C   0  0  0  0  0  0  0  0  0  0  0  0
  -12.6637  -17.9214    9.2768 O   0  0  0  0  0  0  0  0  0  0  0  0
  -11.7045  -19.0940   11.1718 C   0  0  0  0  0  0  0  0  0  0  0  0
  -10.8562  -17.9084   11.2141 N   0  0  0  0  0  0  0  0  0  0  0  0
   -9.4822  -17.9688   11.2990 C   0  0  0  0  0  0  0  0  0  0  0  0
   -8.8451  -19.0163   11.3392 O   0  0  0  0  0  0  0  0  0  0  0  0
   -8.8436  -16.5936   11.3302 C   0  0  0  0  0  0  0  0  0  0  0  0
   -7.3217  -16.6592   11.4356 C   0  0  0  0  0  0  0  0  0  0  0  0
   -6.6819  -15.3389   11.0009 C   0  0  0  0  0  0  0  0  0  0  0  0
   -5.2319  -15.5024   10.8990 N   0  0  0  0  0  0  0  0  0  0  0  0
   -4.6466  -15.8110   12.1962 C   0  0  0  0  0  0  0  0  0  0  0  0
  -12.5039  -19.2522   12.4594 C   0  0  0  0  0  0  0  0  0  0  0  0
  1  2  1  0
  2  3  2  0
  2  4  1  0
  4  5  1  0
  5  6  1  0
  6  7  2  0
  6  8  1  0
  8  9  1  0
  8 17  1  0
  9 10  1  0
 10 11  2  0
 10 12  1  0
 12 13  1  0
 13 14  1  0
 14 15  1  0
 15 16  1  0
M  END
>  <Gold.Gold.Protein.RotatedWaterAtoms>  (230) 


>  <Gold.Id.Protein>  (230) 


>  <Gold.PLP.Chemscore.CHOScore>  (230) 
0.0000

>  <Gold.PLP.Chemscore.Hbond>  (230) 
2.8320

>  <Gold.PLP.Chemscore.Internal.Correction>  (230) 
0.1677

>  <Gold.PLP.Chemscore.Metal>  (230) 
0.0000

>  <Gold.PLP.Fitness>  (230) 
42.8860

>  <Gold.PLP.PLP>  (230) 
-34.9888

>  <Gold.PLP.ligand.clash>  (230) 
0.0000

>  <Gold.PLP.ligand.torsion>  (230) 
0.3833

>  <Gold.PLP.part.buried>  (230) 
-3.6257

>  <Gold.PLP.part.hbond>  (230) 
-5.3256

>  <Gold.PLP.part.metal>  (230) 
0.0000

>  <Gold.PLP.part.nonpolar>  (230) 
-25.5120

>  <Gold.PLP.part.repulsive>  (230) 
0.2014

>  <Gold.Protein.RotatedAtoms>  (230) 


>  <Gold.Protein.RotatedTorsions>  (230) 


>  <Gold.Protein.RotatedWaterAtoms>  (230) 


>  <Gold.Version>  (230) 
5.3.0

>  <PLP.Chemscore.CHOScore>  (230) 


>  <PLP.Chemscore.Hbond>  (230) 


>  <PLP.Chemscore.Internal.Correction>  (230) 


>  <PLP.Chemscore.Metal>  (230) 


>  <PLP.Fitness>  (230) 


>  <PLP.PLP>  (230) 


>  <PLP.ligand.clash>  (230) 


>  <PLP.ligand.torsion>  (230) 


>  <PLP.part.buried>  (230) 


>  <PLP.part.hbond>  (230) 


>  <PLP.part.metal>  (230) 


>  <PLP.part.nonpolar>  (230) 


>  <PLP.part.repulsive>  (230) 


>  <Version>  (230) 


$$$$
230|Compound_159|Compounds_3D_F|sdf|33|dock7|1
     RDKit          3D

 17 16  0  0  0  0  0  0  0  0999 V2000
  -14.5868  -20.9513   15.2150 O   0  0  0  0  0  0  0  0  0  0  0  0
  -13.8829  -21.4948   14.2015 C   0  0  0  0  0  0  0  0  0  0  0  0
  -14.4135  -22.2157   13.3704 O   0  0  0  0  0  0  0  0  0  0  0  0
  -12.4226  -21.1017   14.2330 C   0  0  0  0  0  0  0  0  0  0  0  0
  -12.1541  -20.1305   13.1858 N   0  0  0  0  0  0  0  0  0  0  0  0
  -11.2062  -20.3661   12.2128 C   0  0  0  0  0  0  0  0  0  0  0  0
  -10.5347  -21.3971   12.1596 O   0  0  0  0  0  0  0  0  0  0  0  0
  -11.0677  -19.2459   11.1724 C   0  0  0  0  0  0  0  0  0  0  0  0
   -9.6938  -18.7608   11.2361 N   0  0  0  0  0  0  0  0  0  0  0  0
   -9.3670  -17.4715   11.5965 C   0  0  0  0  0  0  0  0  0  0  0  0
  -10.1923  -16.6172   11.9029 O   0  0  0  0  0  0  0  0  0  0  0  0
   -7.8703  -17.2278   11.5787 C   0  0  0  0  0  0  0  0  0  0  0  0
   -7.5187  -15.7471   11.7036 C   0  0  0  0  0  0  0  0  0  0  0  0
   -6.0775  -15.4839   11.2618 C   0  0  0  0  0  0  0  0  0  0  0  0
   -5.7980  -14.0492   11.3165 N   0  0  0  0  0  0  0  0  0  0  0  0
   -5.6456  -13.5969   12.6924 C   0  0  0  0  0  0  0  0  0  0  0  0
  -11.4084  -19.7708    9.7829 C   0  0  0  0  0  0  0  0  0  0  0  0
  1  2  1  0
  2  3  2  0
  2  4  1  0
  4  5  1  0
  5  6  1  0
  6  7  2  0
  6  8  1  0
  8  9  1  0
  8 17  1  0
  9 10  1  0
 10 11  2  0
 10 12  1  0
 12 13  1  0
 13 14  1  0
 14 15  1  0
 15 16  1  0
M  END
>  <Gold.Gold.Protein.RotatedWaterAtoms>  (231) 


>  <Gold.Id.Protein>  (231) 


>  <Gold.PLP.Chemscore.CHOScore>  (231) 
0.0000

>  <Gold.PLP.Chemscore.Hbond>  (231) 
2.7120

>  <Gold.PLP.Chemscore.Internal.Correction>  (231) 
0.1277

>  <Gold.PLP.Chemscore.Metal>  (231) 
0.0000

>  <Gold.PLP.Fitness>  (231) 
43.1139

>  <Gold.PLP.PLP>  (231) 
-35.6937

>  <Gold.PLP.ligand.clash>  (231) 
0.0000

>  <Gold.PLP.ligand.torsion>  (231) 
0.4218

>  <Gold.PLP.part.buried>  (231) 
-7.1592

>  <Gold.PLP.part.hbond>  (231) 
-5.4083

>  <Gold.PLP.part.metal>  (231) 
0.0000

>  <Gold.PLP.part.nonpolar>  (231) 
-23.4788

>  <Gold.PLP.part.repulsive>  (231) 
0.5804

>  <Gold.Protein.RotatedAtoms>  (231) 


>  <Gold.Protein.RotatedTorsions>  (231) 


>  <Gold.Protein.RotatedWaterAtoms>  (231) 


>  <Gold.Version>  (231) 
5.3.0

>  <PLP.Chemscore.CHOScore>  (231) 


>  <PLP.Chemscore.Hbond>  (231) 


>  <PLP.Chemscore.Internal.Correction>  (231) 


>  <PLP.Chemscore.Metal>  (231) 


>  <PLP.Fitness>  (231) 


>  <PLP.PLP>  (231) 


>  <PLP.ligand.clash>  (231) 


>  <PLP.ligand.torsion>  (231) 


>  <PLP.part.buried>  (231) 


>  <PLP.part.hbond>  (231) 


>  <PLP.part.metal>  (231) 


>  <PLP.part.nonpolar>  (231) 


>  <PLP.part.repulsive>  (231) 


>  <Version>  (231) 


$$$$
231|Compound_159|Compounds_3D_F|sdf|33|dock8|1
     RDKit          3D

 17 16  0  0  0  0  0  0  0  0999 V2000
  -15.0998  -20.9614    7.3905 O   0  0  0  0  0  0  0  0  0  0  0  0
  -15.3466  -22.1537    7.9699 C   0  0  0  0  0  0  0  0  0  0  0  0
  -15.9767  -23.0260    7.3919 O   0  0  0  0  0  0  0  0  0  0  0  0
  -14.7591  -22.2560    9.3599 C   0  0  0  0  0  0  0  0  0  0  0  0
  -14.3046  -20.9466    9.7970 N   0  0  0  0  0  0  0  0  0  0  0  0
  -12.9634  -20.6644    9.9472 C   0  0  0  0  0  0  0  0  0  0  0  0
  -12.0716  -21.4836    9.7228 O   0  0  0  0  0  0  0  0  0  0  0  0
  -12.6598  -19.2275   10.3939 C   0  0  0  0  0  0  0  0  0  0  0  0
  -11.2107  -19.1023   10.5002 N   0  0  0  0  0  0  0  0  0  0  0  0
  -10.5910  -18.3033   11.4364 C   0  0  0  0  0  0  0  0  0  0  0  0
  -11.1929  -17.6320   12.2682 O   0  0  0  0  0  0  0  0  0  0  0  0
   -9.0791  -18.3517   11.3283 C   0  0  0  0  0  0  0  0  0  0  0  0
   -8.4535  -16.9600   11.2687 C   0  0  0  0  0  0  0  0  0  0  0  0
   -7.0142  -17.0245   10.7535 C   0  0  0  0  0  0  0  0  0  0  0  0
   -6.1007  -17.2723   11.8687 N   0  0  0  0  0  0  0  0  0  0  0  0
   -6.0920  -16.1512   12.7982 C   0  0  0  0  0  0  0  0  0  0  0  0
  -13.2323  -18.2313    9.3928 C   0  0  0  0  0  0  0  0  0  0  0  0
  1  2  1  0
  2  3  2  0
  2  4  1  0
  4  5  1  0
  5  6  1  0
  6  7  2  0
  6  8  1  0
  8  9  1  0
  8 17  1  0
  9 10  1  0
 10 11  2  0
 10 12  1  0
 12 13  1  0
 13 14  1  0
 14 15  1  0
 15 16  1  0
M  END
>  <Gold.Gold.Protein.RotatedWaterAtoms>  (232) 


>  <Gold.Id.Protein>  (232) 


>  <Gold.PLP.Chemscore.CHOScore>  (232) 
0.0000

>  <Gold.PLP.Chemscore.Hbond>  (232) 
3.1520

>  <Gold.PLP.Chemscore.Internal.Correction>  (232) 
0.1277

>  <Gold.PLP.Chemscore.Metal>  (232) 
0.0000

>  <Gold.PLP.Fitness>  (232) 
42.6070

>  <Gold.PLP.PLP>  (232) 
-34.6688

>  <Gold.PLP.ligand.clash>  (232) 
0.0000

>  <Gold.PLP.ligand.torsion>  (232) 
0.8228

>  <Gold.PLP.part.buried>  (232) 
-5.7873

>  <Gold.PLP.part.hbond>  (232) 
-4.5715

>  <Gold.PLP.part.metal>  (232) 
0.0000

>  <Gold.PLP.part.nonpolar>  (232) 
-23.8854

>  <Gold.PLP.part.repulsive>  (232) 
0.2127

>  <Gold.Protein.RotatedAtoms>  (232) 


>  <Gold.Protein.RotatedTorsions>  (232) 


>  <Gold.Protein.RotatedWaterAtoms>  (232) 


>  <Gold.Version>  (232) 
5.3.0

>  <PLP.Chemscore.CHOScore>  (232) 


>  <PLP.Chemscore.Hbond>  (232) 


>  <PLP.Chemscore.Internal.Correction>  (232) 


>  <PLP.Chemscore.Metal>  (232) 


>  <PLP.Fitness>  (232) 


>  <PLP.PLP>  (232) 


>  <PLP.ligand.clash>  (232) 


>  <PLP.ligand.torsion>  (232) 


>  <PLP.part.buried>  (232) 


>  <PLP.part.hbond>  (232) 


>  <PLP.part.metal>  (232) 


>  <PLP.part.nonpolar>  (232) 


>  <PLP.part.repulsive>  (232) 


>  <Version>  (232) 


$$$$
232|Compound_159|Compounds_3D_F|sdf|33|dock9|1
     RDKit          3D

 17 16  0  0  0  0  0  0  0  0999 V2000
  -13.7125  -22.2442   13.0991 O   0  0  0  0  0  0  0  0  0  0  0  0
  -12.9381  -21.5428   12.2467 C   0  0  0  0  0  0  0  0  0  0  0  0
  -12.9216  -21.7880   11.0503 O   0  0  0  0  0  0  0  0  0  0  0  0
  -12.1398  -20.4629   12.9428 C   0  0  0  0  0  0  0  0  0  0  0  0
  -11.1570  -19.9119   12.0249 N   0  0  0  0  0  0  0  0  0  0  0  0
  -11.0584  -18.5540   11.8076 C   0  0  0  0  0  0  0  0  0  0  0  0
  -11.7787  -17.7264   12.3670 O   0  0  0  0  0  0  0  0  0  0  0  0
   -9.9523  -18.1436   10.8255 C   0  0  0  0  0  0  0  0  0  0  0  0
   -8.9861  -17.3428   11.5687 N   0  0  0  0  0  0  0  0  0  0  0  0
   -8.7300  -16.0187   11.2858 C   0  0  0  0  0  0  0  0  0  0  0  0
   -9.2903  -15.3894   10.3942 O   0  0  0  0  0  0  0  0  0  0  0  0
   -7.6815  -15.4231   12.2054 C   0  0  0  0  0  0  0  0  0  0  0  0
   -6.5364  -14.7671   11.4371 C   0  0  0  0  0  0  0  0  0  0  0  0
   -5.4978  -14.1774   12.3937 C   0  0  0  0  0  0  0  0  0  0  0  0
   -6.0668  -13.0244   13.0912 N   0  0  0  0  0  0  0  0  0  0  0  0
   -5.8079  -11.7905   12.3623 C   0  0  0  0  0  0  0  0  0  0  0  0
   -9.3001  -19.3798   10.2182 C   0  0  0  0  0  0  0  0  0  0  0  0
  1  2  1  0
  2  3  2  0
  2  4  1  0
  4  5  1  0
  5  6  1  0
  6  7  2  0
  6  8  1  0
  8  9  1  0
  8 17  1  0
  9 10  1  0
 10 11  2  0
 10 12  1  0
 12 13  1  0
 13 14  1  0
 14 15  1  0
 15 16  1  0
M  END
>  <Gold.Gold.Protein.RotatedWaterAtoms>  (233) 


>  <Gold.Id.Protein>  (233) 


>  <Gold.PLP.Chemscore.CHOScore>  (233) 
0.0000

>  <Gold.PLP.Chemscore.Hbond>  (233) 
3.9096

>  <Gold.PLP.Chemscore.Internal.Correction>  (233) 
0.1277

>  <Gold.PLP.Chemscore.Metal>  (233) 
0.0000

>  <Gold.PLP.Fitness>  (233) 
41.9880

>  <Gold.PLP.PLP>  (233) 
-34.7380

>  <Gold.PLP.ligand.clash>  (233) 
3.7498

>  <Gold.PLP.ligand.torsion>  (233) 
0.4283

>  <Gold.PLP.part.buried>  (233) 
-6.6917

>  <Gold.PLP.part.hbond>  (233) 
-4.9964

>  <Gold.PLP.part.metal>  (233) 
0.0000

>  <Gold.PLP.part.nonpolar>  (233) 
-23.2664

>  <Gold.PLP.part.repulsive>  (233) 
0.2772

>  <Gold.Protein.RotatedAtoms>  (233) 


>  <Gold.Protein.RotatedTorsions>  (233) 


>  <Gold.Protein.RotatedWaterAtoms>  (233) 


>  <Gold.Version>  (233) 
5.3.0

>  <PLP.Chemscore.CHOScore>  (233) 


>  <PLP.Chemscore.Hbond>  (233) 


>  <PLP.Chemscore.Internal.Correction>  (233) 


>  <PLP.Chemscore.Metal>  (233) 


>  <PLP.Fitness>  (233) 


>  <PLP.PLP>  (233) 


>  <PLP.ligand.clash>  (233) 


>  <PLP.ligand.torsion>  (233) 


>  <PLP.part.buried>  (233) 


>  <PLP.part.hbond>  (233) 


>  <PLP.part.metal>  (233) 


>  <PLP.part.nonpolar>  (233) 


>  <PLP.part.repulsive>  (233) 


>  <Version>  (233) 


$$$$
233|Compound_160|Compounds_3D_F|sdf|34|dock1|1
     RDKit          3D

 14 13  0  0  0  0  0  0  0  0999 V2000
   -6.3571  -16.9952   11.6880 O   0  0  0  0  0  0  0  0  0  0  0  0
   -7.3220  -16.1157   12.0074 C   0  0  0  0  0  0  0  0  0  0  0  0
   -7.0482  -14.9688   12.3315 O   0  0  0  0  0  0  0  0  0  0  0  0
   -8.7241  -16.6902   11.9984 C   0  0  0  0  0  0  0  0  0  0  0  0
   -9.6449  -15.6629   12.3984 O   0  0  0  0  0  0  0  0  0  0  0  0
   -9.1201  -17.1957   10.6097 C   0  0  0  0  0  0  0  0  0  0  0  0
  -10.5422  -17.4933   10.5382 N   0  0  0  0  0  0  0  0  0  0  0  0
  -11.0045  -18.7631   10.2685 C   0  0  0  0  0  0  0  0  0  0  0  0
  -10.2707  -19.7108   10.0047 O   0  0  0  0  0  0  0  0  0  0  0  0
  -12.5146  -18.8763   10.3309 C   0  0  0  0  0  0  0  0  0  0  0  0
  -13.0545  -19.6016    9.1011 C   0  0  0  0  0  0  0  0  0  0  0  0
  -14.5149  -20.0075    9.2921 C   0  0  0  0  0  0  0  0  0  0  0  0
  -15.0207  -20.5951    8.0524 N   0  0  0  0  0  0  0  0  0  0  0  0
  -14.2809  -21.7982    7.6993 C   0  0  0  0  0  0  0  0  0  0  0  0
  1  2  1  0
  2  3  2  0
  2  4  1  0
  4  5  1  0
  4  6  1  0
  6  7  1  0
  7  8  1  0
  8  9  2  0
  8 10  1  0
 10 11  1  0
 11 12  1  0
 12 13  1  0
 13 14  1  0
M  END
>  <Gold.Gold.Protein.RotatedWaterAtoms>  (234) 


>  <Gold.Id.Protein>  (234) 


>  <Gold.PLP.Chemscore.CHOScore>  (234) 
0.0000

>  <Gold.PLP.Chemscore.Hbond>  (234) 
2.9913

>  <Gold.PLP.Chemscore.Internal.Correction>  (234) 
0.1578

>  <Gold.PLP.Chemscore.Metal>  (234) 
0.0000

>  <Gold.PLP.Fitness>  (234) 
37.9895

>  <Gold.PLP.PLP>  (234) 
-29.3587

>  <Gold.PLP.ligand.clash>  (234) 
0.0000

>  <Gold.PLP.ligand.torsion>  (234) 
0.2504

>  <Gold.PLP.part.buried>  (234) 
-5.3358

>  <Gold.PLP.part.hbond>  (234) 
-5.0000

>  <Gold.PLP.part.metal>  (234) 
0.0000

>  <Gold.PLP.part.nonpolar>  (234) 
-20.1526

>  <Gold.PLP.part.repulsive>  (234) 
0.1255

>  <Gold.Protein.RotatedAtoms>  (234) 


>  <Gold.Protein.RotatedTorsions>  (234) 


>  <Gold.Protein.RotatedWaterAtoms>  (234) 


>  <Gold.Version>  (234) 
5.3.0

>  <PLP.Chemscore.CHOScore>  (234) 


>  <PLP.Chemscore.Hbond>  (234) 


>  <PLP.Chemscore.Internal.Correction>  (234) 


>  <PLP.Chemscore.Metal>  (234) 


>  <PLP.Fitness>  (234) 


>  <PLP.PLP>  (234) 


>  <PLP.ligand.clash>  (234) 


>  <PLP.ligand.torsion>  (234) 


>  <PLP.part.buried>  (234) 


>  <PLP.part.hbond>  (234) 


>  <PLP.part.metal>  (234) 


>  <PLP.part.nonpolar>  (234) 


>  <PLP.part.repulsive>  (234) 


>  <Version>  (234) 


$$$$
234|Compound_160|Compounds_3D_F|sdf|34|dock2|1
     RDKit          3D

 14 13  0  0  0  0  0  0  0  0999 V2000
  -13.5105  -19.9304   10.4221 O   0  0  0  0  0  0  0  0  0  0  0  0
  -12.1936  -19.6857   10.3094 C   0  0  0  0  0  0  0  0  0  0  0  0
  -11.4701  -20.4178    9.6491 O   0  0  0  0  0  0  0  0  0  0  0  0
  -11.7036  -18.4994   11.1147 C   0  0  0  0  0  0  0  0  0  0  0  0
  -12.0158  -18.7223   12.4989 O   0  0  0  0  0  0  0  0  0  0  0  0
  -10.1927  -18.3045   10.9738 C   0  0  0  0  0  0  0  0  0  0  0  0
   -9.8198  -16.9077   11.1349 N   0  0  0  0  0  0  0  0  0  0  0  0
   -8.5021  -16.5148   11.2253 C   0  0  0  0  0  0  0  0  0  0  0  0
   -7.5595  -17.3004   11.2459 O   0  0  0  0  0  0  0  0  0  0  0  0
   -8.3294  -15.0107   11.2961 C   0  0  0  0  0  0  0  0  0  0  0  0
   -6.8797  -14.6187   11.0228 C   0  0  0  0  0  0  0  0  0  0  0  0
   -6.0088  -14.8110   12.2632 C   0  0  0  0  0  0  0  0  0  0  0  0
   -4.9184  -13.8370   12.2455 N   0  0  0  0  0  0  0  0  0  0  0  0
   -5.4099  -12.4909   12.5024 C   0  0  0  0  0  0  0  0  0  0  0  0
  1  2  1  0
  2  3  2  0
  2  4  1  0
  4  5  1  0
  4  6  1  0
  6  7  1  0
  7  8  1  0
  8  9  2  0
  8 10  1  0
 10 11  1  0
 11 12  1  0
 12 13  1  0
 13 14  1  0
M  END
>  <Gold.Gold.Protein.RotatedWaterAtoms>  (235) 


>  <Gold.Id.Protein>  (235) 


>  <Gold.PLP.Chemscore.CHOScore>  (235) 
0.0000

>  <Gold.PLP.Chemscore.Hbond>  (235) 
3.0000

>  <Gold.PLP.Chemscore.Internal.Correction>  (235) 
0.1578

>  <Gold.PLP.Chemscore.Metal>  (235) 
0.0000

>  <Gold.PLP.Fitness>  (235) 
37.3796

>  <Gold.PLP.PLP>  (235) 
-29.9966

>  <Gold.PLP.ligand.clash>  (235) 
0.0000

>  <Gold.PLP.ligand.torsion>  (235) 
0.8874

>  <Gold.PLP.part.buried>  (235) 
-6.9230

>  <Gold.PLP.part.hbond>  (235) 
-4.0000

>  <Gold.PLP.part.metal>  (235) 
0.0000

>  <Gold.PLP.part.nonpolar>  (235) 
-19.1877

>  <Gold.PLP.part.repulsive>  (235) 
0.0486

>  <Gold.Protein.RotatedAtoms>  (235) 


>  <Gold.Protein.RotatedTorsions>  (235) 


>  <Gold.Protein.RotatedWaterAtoms>  (235) 


>  <Gold.Version>  (235) 
5.3.0

>  <PLP.Chemscore.CHOScore>  (235) 


>  <PLP.Chemscore.Hbond>  (235) 


>  <PLP.Chemscore.Internal.Correction>  (235) 


>  <PLP.Chemscore.Metal>  (235) 


>  <PLP.Fitness>  (235) 


>  <PLP.PLP>  (235) 


>  <PLP.ligand.clash>  (235) 


>  <PLP.ligand.torsion>  (235) 


>  <PLP.part.buried>  (235) 


>  <PLP.part.hbond>  (235) 


>  <PLP.part.metal>  (235) 


>  <PLP.part.nonpolar>  (235) 


>  <PLP.part.repulsive>  (235) 


>  <Version>  (235) 


$$$$
235|Compound_160|Compounds_3D_F|sdf|34|dock3|1
     RDKit          3D

 14 13  0  0  0  0  0  0  0  0999 V2000
  -11.4521  -17.4987   12.4994 O   0  0  0  0  0  0  0  0  0  0  0  0
  -11.4714  -18.7238   11.9468 C   0  0  0  0  0  0  0  0  0  0  0  0
  -11.6167  -19.7241   12.6349 O   0  0  0  0  0  0  0  0  0  0  0  0
  -11.2282  -18.7427   10.4513 C   0  0  0  0  0  0  0  0  0  0  0  0
  -12.2821  -18.0120    9.8044 O   0  0  0  0  0  0  0  0  0  0  0  0
   -9.8871  -18.1024   10.0875 C   0  0  0  0  0  0  0  0  0  0  0  0
   -9.7648  -16.7677   10.6529 N   0  0  0  0  0  0  0  0  0  0  0  0
   -8.5674  -16.2957   11.1451 C   0  0  0  0  0  0  0  0  0  0  0  0
   -7.5455  -16.9725   11.2082 O   0  0  0  0  0  0  0  0  0  0  0  0
   -8.6352  -14.8523   11.6023 C   0  0  0  0  0  0  0  0  0  0  0  0
   -7.3689  -14.4646   12.3613 C   0  0  0  0  0  0  0  0  0  0  0  0
   -6.1483  -14.4656   11.4426 C   0  0  0  0  0  0  0  0  0  0  0  0
   -5.0540  -13.7432   12.0898 N   0  0  0  0  0  0  0  0  0  0  0  0
   -5.4722  -12.4105   12.5000 C   0  0  0  0  0  0  0  0  0  0  0  0
  1  2  1  0
  2  3  2  0
  2  4  1  0
  4  5  1  0
  4  6  1  0
  6  7  1  0
  7  8  1  0
  8  9  2  0
  8 10  1  0
 10 11  1  0
 11 12  1  0
 12 13  1  0
 13 14  1  0
M  END
>  <Gold.Gold.Protein.RotatedWaterAtoms>  (236) 


>  <Gold.Id.Protein>  (236) 


>  <Gold.PLP.Chemscore.CHOScore>  (236) 
0.0000

>  <Gold.PLP.Chemscore.Hbond>  (236) 
4.0000

>  <Gold.PLP.Chemscore.Internal.Correction>  (236) 
0.1182

>  <Gold.PLP.Chemscore.Metal>  (236) 
0.0000

>  <Gold.PLP.Fitness>  (236) 
43.9317

>  <Gold.PLP.PLP>  (236) 
-32.5505

>  <Gold.PLP.ligand.clash>  (236) 
0.0000

>  <Gold.PLP.ligand.torsion>  (236) 
0.3685

>  <Gold.PLP.part.buried>  (236) 
-6.7910

>  <Gold.PLP.part.hbond>  (236) 
-6.5275

>  <Gold.PLP.part.metal>  (236) 
0.0000

>  <Gold.PLP.part.nonpolar>  (236) 
-19.8267

>  <Gold.PLP.part.repulsive>  (236) 
0.0218

>  <Gold.Protein.RotatedAtoms>  (236) 


>  <Gold.Protein.RotatedTorsions>  (236) 


>  <Gold.Protein.RotatedWaterAtoms>  (236) 


>  <Gold.Version>  (236) 
5.3.0

>  <PLP.Chemscore.CHOScore>  (236) 


>  <PLP.Chemscore.Hbond>  (236) 


>  <PLP.Chemscore.Internal.Correction>  (236) 


>  <PLP.Chemscore.Metal>  (236) 


>  <PLP.Fitness>  (236) 


>  <PLP.PLP>  (236) 


>  <PLP.ligand.clash>  (236) 


>  <PLP.ligand.torsion>  (236) 


>  <PLP.part.buried>  (236) 


>  <PLP.part.hbond>  (236) 


>  <PLP.part.metal>  (236) 


>  <PLP.part.nonpolar>  (236) 


>  <PLP.part.repulsive>  (236) 


>  <Version>  (236) 


$$$$
236|Compound_160|Compounds_3D_F|sdf|34|dock4|1
     RDKit          3D

 14 13  0  0  0  0  0  0  0  0999 V2000
  -10.5601  -20.8720   11.5142 O   0  0  0  0  0  0  0  0  0  0  0  0
  -11.1153  -19.9069   12.2673 C   0  0  0  0  0  0  0  0  0  0  0  0
  -11.5425  -20.1481   13.3874 O   0  0  0  0  0  0  0  0  0  0  0  0
  -11.2219  -18.5591   11.5833 C   0  0  0  0  0  0  0  0  0  0  0  0
  -11.8028  -17.6209   12.5030 O   0  0  0  0  0  0  0  0  0  0  0  0
   -9.8525  -18.0372   11.1436 C   0  0  0  0  0  0  0  0  0  0  0  0
   -9.7291  -16.6067   11.3772 N   0  0  0  0  0  0  0  0  0  0  0  0
   -8.5467  -16.0408   11.8024 C   0  0  0  0  0  0  0  0  0  0  0  0
   -7.5436  -16.6916   12.0785 O   0  0  0  0  0  0  0  0  0  0  0  0
   -8.6058  -14.5292   11.8952 C   0  0  0  0  0  0  0  0  0  0  0  0
   -7.3205  -13.9734   12.5027 C   0  0  0  0  0  0  0  0  0  0  0  0
   -6.1182  -14.2397   11.5986 C   0  0  0  0  0  0  0  0  0  0  0  0
   -4.9330  -13.5994   12.1672 N   0  0  0  0  0  0  0  0  0  0  0  0
   -5.1952  -12.2067   12.5006 C   0  0  0  0  0  0  0  0  0  0  0  0
  1  2  1  0
  2  3  2  0
  2  4  1  0
  4  5  1  0
  4  6  1  0
  6  7  1  0
  7  8  1  0
  8  9  2  0
  8 10  1  0
 10 11  1  0
 11 12  1  0
 12 13  1  0
 13 14  1  0
M  END
>  <Gold.Gold.Protein.RotatedWaterAtoms>  (237) 


>  <Gold.Id.Protein>  (237) 


>  <Gold.PLP.Chemscore.CHOScore>  (237) 
0.0000

>  <Gold.PLP.Chemscore.Hbond>  (237) 
3.0000

>  <Gold.PLP.Chemscore.Internal.Correction>  (237) 
0.1120

>  <Gold.PLP.Chemscore.Metal>  (237) 
0.0000

>  <Gold.PLP.Fitness>  (237) 
43.5641

>  <Gold.PLP.PLP>  (237) 
-36.0851

>  <Gold.PLP.ligand.clash>  (237) 
0.0000

>  <Gold.PLP.ligand.torsion>  (237) 
0.8165

>  <Gold.PLP.part.buried>  (237) 
-6.9996

>  <Gold.PLP.part.hbond>  (237) 
-6.0000

>  <Gold.PLP.part.metal>  (237) 
0.0000

>  <Gold.PLP.part.nonpolar>  (237) 
-22.8846

>  <Gold.PLP.part.repulsive>  (237) 
0.1619

>  <Gold.Protein.RotatedAtoms>  (237) 


>  <Gold.Protein.RotatedTorsions>  (237) 


>  <Gold.Protein.RotatedWaterAtoms>  (237) 


>  <Gold.Version>  (237) 
5.3.0

>  <PLP.Chemscore.CHOScore>  (237) 


>  <PLP.Chemscore.Hbond>  (237) 


>  <PLP.Chemscore.Internal.Correction>  (237) 


>  <PLP.Chemscore.Metal>  (237) 


>  <PLP.Fitness>  (237) 


>  <PLP.PLP>  (237) 


>  <PLP.ligand.clash>  (237) 


>  <PLP.ligand.torsion>  (237) 


>  <PLP.part.buried>  (237) 


>  <PLP.part.hbond>  (237) 


>  <PLP.part.metal>  (237) 


>  <PLP.part.nonpolar>  (237) 


>  <PLP.part.repulsive>  (237) 


>  <Version>  (237) 


$$$$
237|Compound_160|Compounds_3D_F|sdf|34|dock5|1
     RDKit          3D

 14 13  0  0  0  0  0  0  0  0999 V2000
  -11.5175  -17.5801   12.4654 O   0  0  0  0  0  0  0  0  0  0  0  0
  -11.6465  -18.7932   11.9011 C   0  0  0  0  0  0  0  0  0  0  0  0
  -11.7757  -19.7975   12.5867 O   0  0  0  0  0  0  0  0  0  0  0  0
  -11.5434  -18.7974   10.3894 C   0  0  0  0  0  0  0  0  0  0  0  0
  -12.5928  -17.9754    9.8542 O   0  0  0  0  0  0  0  0  0  0  0  0
  -10.1960  -18.2520    9.9121 C   0  0  0  0  0  0  0  0  0  0  0  0
   -9.7344  -17.1620   10.7575 N   0  0  0  0  0  0  0  0  0  0  0  0
   -8.4368  -17.1005   11.2174 C   0  0  0  0  0  0  0  0  0  0  0  0
   -7.6020  -17.9764   11.0126 O   0  0  0  0  0  0  0  0  0  0  0  0
   -8.1394  -15.8394   12.0037 C   0  0  0  0  0  0  0  0  0  0  0  0
   -6.6959  -15.8384   12.4997 C   0  0  0  0  0  0  0  0  0  0  0  0
   -5.7282  -15.4239   11.3925 C   0  0  0  0  0  0  0  0  0  0  0  0
   -4.7961  -14.4246   11.9126 N   0  0  0  0  0  0  0  0  0  0  0  0
   -5.5056  -13.3010   12.5072 C   0  0  0  0  0  0  0  0  0  0  0  0
  1  2  1  0
  2  3  2  0
  2  4  1  0
  4  5  1  0
  4  6  1  0
  6  7  1  0
  7  8  1  0
  8  9  2  0
  8 10  1  0
 10 11  1  0
 11 12  1  0
 12 13  1  0
 13 14  1  0
M  END
>  <Gold.Gold.Protein.RotatedWaterAtoms>  (238) 


>  <Gold.Id.Protein>  (238) 


>  <Gold.PLP.Chemscore.CHOScore>  (238) 
0.0000

>  <Gold.PLP.Chemscore.Hbond>  (238) 
4.0000

>  <Gold.PLP.Chemscore.Internal.Correction>  (238) 
0.1120

>  <Gold.PLP.Chemscore.Metal>  (238) 
0.0000

>  <Gold.PLP.Fitness>  (238) 
42.4885

>  <Gold.PLP.PLP>  (238) 
-31.9302

>  <Gold.PLP.ligand.clash>  (238) 
0.0000

>  <Gold.PLP.ligand.torsion>  (238) 
0.7768

>  <Gold.PLP.part.buried>  (238) 
-6.2652

>  <Gold.PLP.part.hbond>  (238) 
-6.2832

>  <Gold.PLP.part.metal>  (238) 
0.0000

>  <Gold.PLP.part.nonpolar>  (238) 
-19.4396

>  <Gold.PLP.part.repulsive>  (238) 
0.0287

>  <Gold.Protein.RotatedAtoms>  (238) 


>  <Gold.Protein.RotatedTorsions>  (238) 


>  <Gold.Protein.RotatedWaterAtoms>  (238) 


>  <Gold.Version>  (238) 
5.3.0

>  <PLP.Chemscore.CHOScore>  (238) 


>  <PLP.Chemscore.Hbond>  (238) 


>  <PLP.Chemscore.Internal.Correction>  (238) 


>  <PLP.Chemscore.Metal>  (238) 


>  <PLP.Fitness>  (238) 


>  <PLP.PLP>  (238) 


>  <PLP.ligand.clash>  (238) 


>  <PLP.ligand.torsion>  (238) 


>  <PLP.part.buried>  (238) 


>  <PLP.part.hbond>  (238) 


>  <PLP.part.metal>  (238) 


>  <PLP.part.nonpolar>  (238) 


>  <PLP.part.repulsive>  (238) 


>  <Version>  (238) 


$$$$
238|Compound_160|Compounds_3D_F|sdf|34|dock6|1
     RDKit          3D

 14 13  0  0  0  0  0  0  0  0999 V2000
  -12.4388  -19.7644   12.2080 O   0  0  0  0  0  0  0  0  0  0  0  0
  -11.8029  -18.6315   11.8635 C   0  0  0  0  0  0  0  0  0  0  0  0
  -11.9629  -17.5996   12.4997 O   0  0  0  0  0  0  0  0  0  0  0  0
  -10.9591  -18.7408   10.6097 C   0  0  0  0  0  0  0  0  0  0  0  0
  -11.4985  -17.8577    9.6135 O   0  0  0  0  0  0  0  0  0  0  0  0
   -9.5014  -18.3578   10.8728 C   0  0  0  0  0  0  0  0  0  0  0  0
   -9.3615  -16.9291   11.1076 N   0  0  0  0  0  0  0  0  0  0  0  0
   -8.1298  -16.3444   11.3073 C   0  0  0  0  0  0  0  0  0  0  0  0
   -7.0802  -16.9773   11.3704 O   0  0  0  0  0  0  0  0  0  0  0  0
   -8.1976  -14.8362   11.4410 C   0  0  0  0  0  0  0  0  0  0  0  0
   -7.2405  -14.3450   12.5239 C   0  0  0  0  0  0  0  0  0  0  0  0
   -5.7869  -14.4331   12.0621 C   0  0  0  0  0  0  0  0  0  0  0  0
   -4.9979  -13.4104   12.7473 N   0  0  0  0  0  0  0  0  0  0  0  0
   -5.5169  -12.0769   12.4792 C   0  0  0  0  0  0  0  0  0  0  0  0
  1  2  1  0
  2  3  2  0
  2  4  1  0
  4  5  1  0
  4  6  1  0
  6  7  1  0
  7  8  1  0
  8  9  2  0
  8 10  1  0
 10 11  1  0
 11 12  1  0
 12 13  1  0
 13 14  1  0
M  END
>  <Gold.Gold.Protein.RotatedWaterAtoms>  (239) 


>  <Gold.Id.Protein>  (239) 


>  <Gold.PLP.Chemscore.CHOScore>  (239) 
0.0000

>  <Gold.PLP.Chemscore.Hbond>  (239) 
2.9500

>  <Gold.PLP.Chemscore.Internal.Correction>  (239) 
0.1120

>  <Gold.PLP.Chemscore.Metal>  (239) 
0.0000

>  <Gold.PLP.Fitness>  (239) 
40.3640

>  <Gold.PLP.PLP>  (239) 
-32.5333

>  <Gold.PLP.ligand.clash>  (239) 
0.0000

>  <Gold.PLP.ligand.torsion>  (239) 
0.5656

>  <Gold.PLP.part.buried>  (239) 
-6.7274

>  <Gold.PLP.part.hbond>  (239) 
-5.0000

>  <Gold.PLP.part.metal>  (239) 
0.0000

>  <Gold.PLP.part.nonpolar>  (239) 
-20.8256

>  <Gold.PLP.part.repulsive>  (239) 
0.0922

>  <Gold.Protein.RotatedAtoms>  (239) 


>  <Gold.Protein.RotatedTorsions>  (239) 


>  <Gold.Protein.RotatedWaterAtoms>  (239) 


>  <Gold.Version>  (239) 
5.3.0

>  <PLP.Chemscore.CHOScore>  (239) 


>  <PLP.Chemscore.Hbond>  (239) 


>  <PLP.Chemscore.Internal.Correction>  (239) 


>  <PLP.Chemscore.Metal>  (239) 


>  <PLP.Fitness>  (239) 


>  <PLP.PLP>  (239) 


>  <PLP.ligand.clash>  (239) 


>  <PLP.ligand.torsion>  (239) 


>  <PLP.part.buried>  (239) 


>  <PLP.part.hbond>  (239) 


>  <PLP.part.metal>  (239) 


>  <PLP.part.nonpolar>  (239) 


>  <PLP.part.repulsive>  (239) 


>  <Version>  (239) 


$$$$
239|Compound_160|Compounds_3D_F|sdf|34|dock7|1
     RDKit          3D

 14 13  0  0  0  0  0  0  0  0999 V2000
  -11.0847  -19.5454   12.4221 O   0  0  0  0  0  0  0  0  0  0  0  0
  -10.5824  -18.4152   11.8959 C   0  0  0  0  0  0  0  0  0  0  0  0
  -10.9561  -17.3177   12.2846 O   0  0  0  0  0  0  0  0  0  0  0  0
   -9.5996  -18.6320   10.7631 C   0  0  0  0  0  0  0  0  0  0  0  0
  -10.1518  -18.0719    9.5612 O   0  0  0  0  0  0  0  0  0  0  0  0
   -8.2526  -17.9641   11.0463 C   0  0  0  0  0  0  0  0  0  0  0  0
   -8.4263  -16.6138   11.5587 N   0  0  0  0  0  0  0  0  0  0  0  0
   -7.3497  -15.8020   11.8428 C   0  0  0  0  0  0  0  0  0  0  0  0
   -6.1816  -16.1679   11.7540 O   0  0  0  0  0  0  0  0  0  0  0  0
   -7.7504  -14.4062   12.2768 C   0  0  0  0  0  0  0  0  0  0  0  0
   -6.8632  -13.3569   11.6122 C   0  0  0  0  0  0  0  0  0  0  0  0
   -6.7203  -12.1141   12.4891 C   0  0  0  0  0  0  0  0  0  0  0  0
   -6.6328  -10.9281   11.6384 N   0  0  0  0  0  0  0  0  0  0  0  0
   -7.8986  -10.2099   11.6035 C   0  0  0  0  0  0  0  0  0  0  0  0
  1  2  1  0
  2  3  2  0
  2  4  1  0
  4  5  1  0
  4  6  1  0
  6  7  1  0
  7  8  1  0
  8  9  2  0
  8 10  1  0
 10 11  1  0
 11 12  1  0
 12 13  1  0
 13 14  1  0
M  END
>  <Gold.Gold.Protein.RotatedWaterAtoms>  (240) 


>  <Gold.Id.Protein>  (240) 


>  <Gold.PLP.Chemscore.CHOScore>  (240) 
0.0000

>  <Gold.PLP.Chemscore.Hbond>  (240) 
1.8426

>  <Gold.PLP.Chemscore.Internal.Correction>  (240) 
0.0582

>  <Gold.PLP.Chemscore.Metal>  (240) 
0.0000

>  <Gold.PLP.Fitness>  (240) 
38.3979

>  <Gold.PLP.PLP>  (240) 
-34.9395

>  <Gold.PLP.ligand.clash>  (240) 
0.0000

>  <Gold.PLP.ligand.torsion>  (240) 
1.0638

>  <Gold.PLP.part.buried>  (240) 
-5.9882

>  <Gold.PLP.part.hbond>  (240) 
-3.3535

>  <Gold.PLP.part.metal>  (240) 
0.0000

>  <Gold.PLP.part.nonpolar>  (240) 
-26.0813

>  <Gold.PLP.part.repulsive>  (240) 
0.1510

>  <Gold.Protein.RotatedAtoms>  (240) 


>  <Gold.Protein.RotatedTorsions>  (240) 


>  <Gold.Protein.RotatedWaterAtoms>  (240) 


>  <Gold.Version>  (240) 
5.3.0

>  <PLP.Chemscore.CHOScore>  (240) 


>  <PLP.Chemscore.Hbond>  (240) 


>  <PLP.Chemscore.Internal.Correction>  (240) 


>  <PLP.Chemscore.Metal>  (240) 


>  <PLP.Fitness>  (240) 


>  <PLP.PLP>  (240) 


>  <PLP.ligand.clash>  (240) 


>  <PLP.ligand.torsion>  (240) 


>  <PLP.part.buried>  (240) 


>  <PLP.part.hbond>  (240) 


>  <PLP.part.metal>  (240) 


>  <PLP.part.nonpolar>  (240) 


>  <PLP.part.repulsive>  (240) 


>  <Version>  (240) 


$$$$
240|Compound_160|Compounds_3D_F|sdf|34|dock8|1
     RDKit          3D

 14 13  0  0  0  0  0  0  0  0999 V2000
  -11.8157  -17.6266   12.4993 O   0  0  0  0  0  0  0  0  0  0  0  0
  -11.4322  -18.7512   11.8709 C   0  0  0  0  0  0  0  0  0  0  0  0
  -11.8543  -19.8444   12.2203 O   0  0  0  0  0  0  0  0  0  0  0  0
  -10.4050  -18.5410   10.7770 C   0  0  0  0  0  0  0  0  0  0  0  0
  -10.9797  -17.7044    9.7606 O   0  0  0  0  0  0  0  0  0  0  0  0
   -9.1379  -17.8703   11.3112 C   0  0  0  0  0  0  0  0  0  0  0  0
   -9.3264  -16.4381   11.4821 N   0  0  0  0  0  0  0  0  0  0  0  0
   -8.3018  -15.6166   11.8997 C   0  0  0  0  0  0  0  0  0  0  0  0
   -7.1906  -16.0271   12.2204 O   0  0  0  0  0  0  0  0  0  0  0  0
   -8.6824  -14.1498   11.9235 C   0  0  0  0  0  0  0  0  0  0  0  0
   -7.7170  -13.3540   12.7979 C   0  0  0  0  0  0  0  0  0  0  0  0
   -6.2938  -13.4070   12.2447 C   0  0  0  0  0  0  0  0  0  0  0  0
   -5.5144  -12.3044   12.8057 N   0  0  0  0  0  0  0  0  0  0  0  0
   -6.1082  -11.0172   12.4741 C   0  0  0  0  0  0  0  0  0  0  0  0
  1  2  1  0
  2  3  2  0
  2  4  1  0
  4  5  1  0
  4  6  1  0
  6  7  1  0
  7  8  1  0
  8  9  2  0
  8 10  1  0
 10 11  1  0
 11 12  1  0
 12 13  1  0
 13 14  1  0
M  END
>  <Gold.Gold.Protein.RotatedWaterAtoms>  (241) 


>  <Gold.Id.Protein>  (241) 


>  <Gold.PLP.Chemscore.CHOScore>  (241) 
0.0000

>  <Gold.PLP.Chemscore.Hbond>  (241) 
3.9420

>  <Gold.PLP.Chemscore.Internal.Correction>  (241) 
0.0582

>  <Gold.PLP.Chemscore.Metal>  (241) 
0.0000

>  <Gold.PLP.Fitness>  (241) 
47.3742

>  <Gold.PLP.PLP>  (241) 
-36.5275

>  <Gold.PLP.ligand.clash>  (241) 
0.0000

>  <Gold.PLP.ligand.torsion>  (241) 
0.5188

>  <Gold.PLP.part.buried>  (241) 
-7.9909

>  <Gold.PLP.part.hbond>  (241) 
-4.6947

>  <Gold.PLP.part.metal>  (241) 
0.0000

>  <Gold.PLP.part.nonpolar>  (241) 
-23.6378

>  <Gold.PLP.part.repulsive>  (241) 
0.1531

>  <Gold.Protein.RotatedAtoms>  (241) 


>  <Gold.Protein.RotatedTorsions>  (241) 


>  <Gold.Protein.RotatedWaterAtoms>  (241) 


>  <Gold.Version>  (241) 
5.3.0

>  <PLP.Chemscore.CHOScore>  (241) 


>  <PLP.Chemscore.Hbond>  (241) 


>  <PLP.Chemscore.Internal.Correction>  (241) 


>  <PLP.Chemscore.Metal>  (241) 


>  <PLP.Fitness>  (241) 


>  <PLP.PLP>  (241) 


>  <PLP.ligand.clash>  (241) 


>  <PLP.ligand.torsion>  (241) 


>  <PLP.part.buried>  (241) 


>  <PLP.part.hbond>  (241) 


>  <PLP.part.metal>  (241) 


>  <PLP.part.nonpolar>  (241) 


>  <PLP.part.repulsive>  (241) 


>  <Version>  (241) 


$$$$
241|Compound_160|Compounds_3D_F|sdf|34|dock9|1
     RDKit          3D

 14 13  0  0  0  0  0  0  0  0999 V2000
   -9.6231  -15.4454    9.4605 O   0  0  0  0  0  0  0  0  0  0  0  0
   -8.5190  -15.4764   10.2264 C   0  0  0  0  0  0  0  0  0  0  0  0
   -7.4646  -14.9981    9.8331 O   0  0  0  0  0  0  0  0  0  0  0  0
   -8.6889  -16.2038   11.5448 C   0  0  0  0  0  0  0  0  0  0  0  0
   -9.6280  -15.4776   12.3534 O   0  0  0  0  0  0  0  0  0  0  0  0
   -9.2083  -17.6286   11.3427 C   0  0  0  0  0  0  0  0  0  0  0  0
  -10.5744  -17.6302   10.8427 N   0  0  0  0  0  0  0  0  0  0  0  0
  -11.0981  -18.7113   10.1675 C   0  0  0  0  0  0  0  0  0  0  0  0
  -10.4477  -19.7114    9.8792 O   0  0  0  0  0  0  0  0  0  0  0  0
  -12.5626  -18.5447    9.8148 C   0  0  0  0  0  0  0  0  0  0  0  0
  -13.1357  -19.8436    9.2542 C   0  0  0  0  0  0  0  0  0  0  0  0
  -14.6125  -19.6896    8.8943 C   0  0  0  0  0  0  0  0  0  0  0  0
  -15.2402  -21.0093    8.8480 N   0  0  0  0  0  0  0  0  0  0  0  0
  -14.7581  -21.7828    7.7128 C   0  0  0  0  0  0  0  0  0  0  0  0
  1  2  1  0
  2  3  2  0
  2  4  1  0
  4  5  1  0
  4  6  1  0
  6  7  1  0
  7  8  1  0
  8  9  2  0
  8 10  1  0
 10 11  1  0
 11 12  1  0
 12 13  1  0
 13 14  1  0
M  END
>  <Gold.Gold.Protein.RotatedWaterAtoms>  (242) 


>  <Gold.Id.Protein>  (242) 


>  <Gold.PLP.Chemscore.CHOScore>  (242) 
0.0000

>  <Gold.PLP.Chemscore.Hbond>  (242) 
3.3120

>  <Gold.PLP.Chemscore.Internal.Correction>  (242) 
0.0582

>  <Gold.PLP.Chemscore.Metal>  (242) 
0.0000

>  <Gold.PLP.Fitness>  (242) 
41.1793

>  <Gold.PLP.PLP>  (242) 
-32.0001

>  <Gold.PLP.ligand.clash>  (242) 
0.0000

>  <Gold.PLP.ligand.torsion>  (242) 
0.4075

>  <Gold.PLP.part.buried>  (242) 
-5.2072

>  <Gold.PLP.part.hbond>  (242) 
-5.9764

>  <Gold.PLP.part.metal>  (242) 
0.0000

>  <Gold.PLP.part.nonpolar>  (242) 
-20.2920

>  <Gold.PLP.part.repulsive>  (242) 
0.1470

>  <Gold.Protein.RotatedAtoms>  (242) 


>  <Gold.Protein.RotatedTorsions>  (242) 


>  <Gold.Protein.RotatedWaterAtoms>  (242) 


>  <Gold.Version>  (242) 
5.3.0

>  <PLP.Chemscore.CHOScore>  (242) 


>  <PLP.Chemscore.Hbond>  (242) 


>  <PLP.Chemscore.Internal.Correction>  (242) 


>  <PLP.Chemscore.Metal>  (242) 


>  <PLP.Fitness>  (242) 


>  <PLP.PLP>  (242) 


>  <PLP.ligand.clash>  (242) 


>  <PLP.ligand.torsion>  (242) 


>  <PLP.part.buried>  (242) 


>  <PLP.part.hbond>  (242) 


>  <PLP.part.metal>  (242) 


>  <PLP.part.nonpolar>  (242) 


>  <PLP.part.repulsive>  (242) 


>  <Version>  (242) 


$$$$
242|Compound_161|Compounds_3D_F|sdf|35|dock1|1
     RDKit          3D

 19 18  0  0  0  0  0  0  0  0999 V2000
  -11.5662  -20.4393   13.5906 O   0  0  0  0  0  0  0  0  0  0  0  0
  -10.9506  -20.5482   12.3908 C   0  0  0  0  0  0  0  0  0  0  0  0
  -10.5240  -21.6291   12.0127 O   0  0  0  0  0  0  0  0  0  0  0  0
  -10.9040  -19.2210   11.6430 C   0  0  0  0  0  0  0  0  0  0  0  0
   -9.5088  -18.8018   11.4903 N   0  0  0  0  0  0  0  0  0  0  0  0
   -9.1017  -17.4913   11.5996 C   0  0  0  0  0  0  0  0  0  0  0  0
   -9.8663  -16.5601   11.8310 O   0  0  0  0  0  0  0  0  0  0  0  0
   -7.6040  -17.3240   11.4059 C   0  0  0  0  0  0  0  0  0  0  0  0
   -7.1194  -15.9184   11.7642 C   0  0  0  0  0  0  0  0  0  0  0  0
   -7.7347  -14.8607   10.8439 C   0  0  0  0  0  0  0  0  0  0  0  0
   -7.7963  -13.5698   11.5332 N   0  0  0  0  0  0  0  0  0  0  0  0
   -9.0747  -13.3946   12.2082 C   0  0  0  0  0  0  0  0  0  0  0  0
  -11.6106  -19.3535   10.2766 C   0  0  0  0  0  0  0  0  0  0  0  0
  -12.9171  -19.9093   10.4883 O   0  0  0  0  0  0  0  0  0  0  0  0
  -13.9379  -19.6495    9.5130 C   0  0  0  0  0  0  0  0  0  0  0  0
  -13.8935  -18.2129    8.9820 C   0  0  0  0  0  0  0  0  0  0  0  0
  -13.6297  -20.6091    8.3542 C   0  0  0  0  0  0  0  0  0  0  0  0
  -15.3288  -19.9855   10.0636 C   0  0  0  0  0  0  0  0  0  0  0  0
  -10.8236  -20.3069    9.3734 C   0  0  0  0  0  0  0  0  0  0  0  0
  1  2  1  0
  2  3  2  0
  2  4  1  0
  4  5  1  0
  4 13  1  0
  5  6  1  0
  6  7  2  0
  6  8  1  0
  8  9  1  0
  9 10  1  0
 10 11  1  0
 11 12  1  0
 13 14  1  0
 13 19  1  0
 14 15  1  0
 15 16  1  0
 15 17  1  0
 15 18  1  0
M  END
>  <Gold.Gold.Protein.RotatedWaterAtoms>  (243) 


>  <Gold.Id.Protein>  (243) 


>  <Gold.PLP.Chemscore.CHOScore>  (243) 
0.0000

>  <Gold.PLP.Chemscore.Hbond>  (243) 
0.8480

>  <Gold.PLP.Chemscore.Internal.Correction>  (243) 
0.8548

>  <Gold.PLP.Chemscore.Metal>  (243) 
0.0000

>  <Gold.PLP.Fitness>  (243) 
44.2029

>  <Gold.PLP.PLP>  (243) 
-43.5061

>  <Gold.PLP.ligand.clash>  (243) 
0.0000

>  <Gold.PLP.ligand.torsion>  (243) 
1.3510

>  <Gold.PLP.part.buried>  (243) 
-8.0432

>  <Gold.PLP.part.hbond>  (243) 
-2.0000

>  <Gold.PLP.part.metal>  (243) 
0.0000

>  <Gold.PLP.part.nonpolar>  (243) 
-33.4406

>  <Gold.PLP.part.repulsive>  (243) 
0.1360

>  <Gold.Protein.RotatedAtoms>  (243) 


>  <Gold.Protein.RotatedTorsions>  (243) 


>  <Gold.Protein.RotatedWaterAtoms>  (243) 


>  <Gold.Version>  (243) 
5.3.0

>  <PLP.Chemscore.CHOScore>  (243) 


>  <PLP.Chemscore.Hbond>  (243) 


>  <PLP.Chemscore.Internal.Correction>  (243) 


>  <PLP.Chemscore.Metal>  (243) 


>  <PLP.Fitness>  (243) 


>  <PLP.PLP>  (243) 


>  <PLP.ligand.clash>  (243) 


>  <PLP.ligand.torsion>  (243) 


>  <PLP.part.buried>  (243) 


>  <PLP.part.hbond>  (243) 


>  <PLP.part.metal>  (243) 


>  <PLP.part.nonpolar>  (243) 


>  <PLP.part.repulsive>  (243) 


>  <Version>  (243) 


$$$$
243|Compound_161|Compounds_3D_F|sdf|35|dock2|1
     RDKit          3D

 19 18  0  0  0  0  0  0  0  0999 V2000
   -8.6875  -15.0160    9.7789 O   0  0  0  0  0  0  0  0  0  0  0  0
   -8.7779  -14.9114   11.1248 C   0  0  0  0  0  0  0  0  0  0  0  0
   -9.4015  -13.9904   11.6310 O   0  0  0  0  0  0  0  0  0  0  0  0
   -8.0580  -16.0473   11.8420 C   0  0  0  0  0  0  0  0  0  0  0  0
   -8.6252  -17.3269   11.4102 N   0  0  0  0  0  0  0  0  0  0  0  0
   -9.9096  -17.7196   11.7121 C   0  0  0  0  0  0  0  0  0  0  0  0
  -10.6909  -17.0388   12.3687 O   0  0  0  0  0  0  0  0  0  0  0  0
  -10.2552  -19.0850   11.1418 C   0  0  0  0  0  0  0  0  0  0  0  0
  -11.5414  -19.6607   11.7360 C   0  0  0  0  0  0  0  0  0  0  0  0
  -12.7814  -18.9538   11.1821 C   0  0  0  0  0  0  0  0  0  0  0  0
  -12.8840  -19.1773    9.7383 N   0  0  0  0  0  0  0  0  0  0  0  0
  -14.1931  -18.7832    9.2368 C   0  0  0  0  0  0  0  0  0  0  0  0
   -6.5407  -15.9758   11.5659 C   0  0  0  0  0  0  0  0  0  0  0  0
   -6.0391  -17.3120   11.4131 O   0  0  0  0  0  0  0  0  0  0  0  0
   -4.7793  -17.4989   10.7506 C   0  0  0  0  0  0  0  0  0  0  0  0
   -3.5970  -16.9805   11.5759 C   0  0  0  0  0  0  0  0  0  0  0  0
   -4.6375  -19.0202   10.5948 C   0  0  0  0  0  0  0  0  0  0  0  0
   -4.7887  -16.8674    9.3536 C   0  0  0  0  0  0  0  0  0  0  0  0
   -5.8250  -15.3269   12.7537 C   0  0  0  0  0  0  0  0  0  0  0  0
  1  2  1  0
  2  3  2  0
  2  4  1  0
  4  5  1  0
  4 13  1  0
  5  6  1  0
  6  7  2  0
  6  8  1  0
  8  9  1  0
  9 10  1  0
 10 11  1  0
 11 12  1  0
 13 14  1  0
 13 19  1  0
 14 15  1  0
 15 16  1  0
 15 17  1  0
 15 18  1  0
M  END
>  <Gold.Gold.Protein.RotatedWaterAtoms>  (244) 


>  <Gold.Id.Protein>  (244) 


>  <Gold.PLP.Chemscore.CHOScore>  (244) 
0.0000

>  <Gold.PLP.Chemscore.Hbond>  (244) 
2.7613

>  <Gold.PLP.Chemscore.Internal.Correction>  (244) 
0.8159

>  <Gold.PLP.Chemscore.Metal>  (244) 
0.0000

>  <Gold.PLP.Fitness>  (244) 
43.4143

>  <Gold.PLP.PLP>  (244) 
-37.6639

>  <Gold.PLP.ligand.clash>  (244) 
0.0000

>  <Gold.PLP.ligand.torsion>  (244) 
1.6746

>  <Gold.PLP.part.buried>  (244) 
-6.4788

>  <Gold.PLP.part.hbond>  (244) 
-4.1208

>  <Gold.PLP.part.metal>  (244) 
0.0000

>  <Gold.PLP.part.nonpolar>  (244) 
-27.8300

>  <Gold.PLP.part.repulsive>  (244) 
0.2621

>  <Gold.Protein.RotatedAtoms>  (244) 


>  <Gold.Protein.RotatedTorsions>  (244) 


>  <Gold.Protein.RotatedWaterAtoms>  (244) 


>  <Gold.Version>  (244) 
5.3.0

>  <PLP.Chemscore.CHOScore>  (244) 


>  <PLP.Chemscore.Hbond>  (244) 


>  <PLP.Chemscore.Internal.Correction>  (244) 


>  <PLP.Chemscore.Metal>  (244) 


>  <PLP.Fitness>  (244) 


>  <PLP.PLP>  (244) 


>  <PLP.ligand.clash>  (244) 


>  <PLP.ligand.torsion>  (244) 


>  <PLP.part.buried>  (244) 


>  <PLP.part.hbond>  (244) 


>  <PLP.part.metal>  (244) 


>  <PLP.part.nonpolar>  (244) 


>  <PLP.part.repulsive>  (244) 


>  <Version>  (244) 


$$$$
244|Compound_161|Compounds_3D_F|sdf|35|dock3|1
     RDKit          3D

 19 18  0  0  0  0  0  0  0  0999 V2000
  -14.0216  -20.4137   13.2085 O   0  0  0  0  0  0  0  0  0  0  0  0
  -12.7581  -20.0747   12.8635 C   0  0  0  0  0  0  0  0  0  0  0  0
  -11.8055  -20.5846   13.4343 O   0  0  0  0  0  0  0  0  0  0  0  0
  -12.7222  -19.0598   11.7270 C   0  0  0  0  0  0  0  0  0  0  0  0
  -11.3285  -18.7389   11.4105 N   0  0  0  0  0  0  0  0  0  0  0  0
  -10.6828  -17.6276   11.9034 C   0  0  0  0  0  0  0  0  0  0  0  0
  -11.2134  -16.8080   12.6465 O   0  0  0  0  0  0  0  0  0  0  0  0
   -9.2423  -17.5278   11.4304 C   0  0  0  0  0  0  0  0  0  0  0  0
   -8.5885  -16.2002   11.8163 C   0  0  0  0  0  0  0  0  0  0  0  0
   -7.1391  -16.1253   11.3284 C   0  0  0  0  0  0  0  0  0  0  0  0
   -6.6477  -14.7489   11.4237 N   0  0  0  0  0  0  0  0  0  0  0  0
   -5.6540  -14.6172   12.4801 C   0  0  0  0  0  0  0  0  0  0  0  0
  -13.4725  -19.6114   10.4955 C   0  0  0  0  0  0  0  0  0  0  0  0
  -12.6938  -20.6717    9.9214 O   0  0  0  0  0  0  0  0  0  0  0  0
  -13.3749  -21.7041    9.1924 C   0  0  0  0  0  0  0  0  0  0  0  0
  -14.1237  -21.1655    7.9688 C   0  0  0  0  0  0  0  0  0  0  0  0
  -12.2620  -22.6458    8.7094 C   0  0  0  0  0  0  0  0  0  0  0  0
  -14.3183  -22.4965   10.1048 C   0  0  0  0  0  0  0  0  0  0  0  0
  -13.6311  -18.5088    9.4451 C   0  0  0  0  0  0  0  0  0  0  0  0
  1  2  1  0
  2  3  2  0
  2  4  1  0
  4  5  1  0
  4 13  1  0
  5  6  1  0
  6  7  2  0
  6  8  1  0
  8  9  1  0
  9 10  1  0
 10 11  1  0
 11 12  1  0
 13 14  1  0
 13 19  1  0
 14 15  1  0
 15 16  1  0
 15 17  1  0
 15 18  1  0
M  END
>  <Gold.Gold.Protein.RotatedWaterAtoms>  (245) 


>  <Gold.Id.Protein>  (245) 


>  <Gold.PLP.Chemscore.CHOScore>  (245) 
0.0000

>  <Gold.PLP.Chemscore.Hbond>  (245) 
2.8660

>  <Gold.PLP.Chemscore.Internal.Correction>  (245) 
0.8159

>  <Gold.PLP.Chemscore.Metal>  (245) 
0.0000

>  <Gold.PLP.Fitness>  (245) 
44.1575

>  <Gold.PLP.PLP>  (245) 
-37.1223

>  <Gold.PLP.ligand.clash>  (245) 
0.0000

>  <Gold.PLP.ligand.torsion>  (245) 
1.1893

>  <Gold.PLP.part.buried>  (245) 
-3.4840

>  <Gold.PLP.part.hbond>  (245) 
-3.5233

>  <Gold.PLP.part.metal>  (245) 
0.0000

>  <Gold.PLP.part.nonpolar>  (245) 
-30.0344

>  <Gold.PLP.part.repulsive>  (245) 
0.1860

>  <Gold.Protein.RotatedAtoms>  (245) 


>  <Gold.Protein.RotatedTorsions>  (245) 


>  <Gold.Protein.RotatedWaterAtoms>  (245) 


>  <Gold.Version>  (245) 
5.3.0

>  <PLP.Chemscore.CHOScore>  (245) 


>  <PLP.Chemscore.Hbond>  (245) 


>  <PLP.Chemscore.Internal.Correction>  (245) 


>  <PLP.Chemscore.Metal>  (245) 


>  <PLP.Fitness>  (245) 


>  <PLP.PLP>  (245) 


>  <PLP.ligand.clash>  (245) 


>  <PLP.ligand.torsion>  (245) 


>  <PLP.part.buried>  (245) 


>  <PLP.part.hbond>  (245) 


>  <PLP.part.metal>  (245) 


>  <PLP.part.nonpolar>  (245) 


>  <PLP.part.repulsive>  (245) 


>  <Version>  (245) 


$$$$
245|Compound_161|Compounds_3D_F|sdf|35|dock4|1
     RDKit          3D

 19 18  0  0  0  0  0  0  0  0999 V2000
   -7.0222  -18.0200    9.2750 O   0  0  0  0  0  0  0  0  0  0  0  0
   -8.3031  -18.3832    9.0343 C   0  0  0  0  0  0  0  0  0  0  0  0
   -8.6371  -18.7642    7.9224 O   0  0  0  0  0  0  0  0  0  0  0  0
   -9.1781  -18.2725   10.2773 C   0  0  0  0  0  0  0  0  0  0  0  0
   -9.2031  -16.8788   10.7273 N   0  0  0  0  0  0  0  0  0  0  0  0
   -8.1918  -16.3103   11.4684 C   0  0  0  0  0  0  0  0  0  0  0  0
   -7.1845  -16.9163   11.8196 O   0  0  0  0  0  0  0  0  0  0  0  0
   -8.4568  -14.8516   11.8012 C   0  0  0  0  0  0  0  0  0  0  0  0
   -7.2258  -13.9687   11.5910 C   0  0  0  0  0  0  0  0  0  0  0  0
   -6.0207  -14.4886   12.3795 C   0  0  0  0  0  0  0  0  0  0  0  0
   -4.8790  -13.5882   12.2034 N   0  0  0  0  0  0  0  0  0  0  0  0
   -5.2508  -12.2075   12.4790 C   0  0  0  0  0  0  0  0  0  0  0  0
  -10.5984  -18.7990    9.9784 C   0  0  0  0  0  0  0  0  0  0  0  0
  -11.4085  -18.6229   11.1502 O   0  0  0  0  0  0  0  0  0  0  0  0
  -12.8199  -18.8656   11.0496 C   0  0  0  0  0  0  0  0  0  0  0  0
  -13.1675  -20.3565   11.1145 C   0  0  0  0  0  0  0  0  0  0  0  0
  -13.4284  -18.1677   12.2749 C   0  0  0  0  0  0  0  0  0  0  0  0
  -13.4040  -18.2231    9.7861 C   0  0  0  0  0  0  0  0  0  0  0  0
  -10.5421  -20.2941    9.6535 C   0  0  0  0  0  0  0  0  0  0  0  0
  1  2  1  0
  2  3  2  0
  2  4  1  0
  4  5  1  0
  4 13  1  0
  5  6  1  0
  6  7  2  0
  6  8  1  0
  8  9  1  0
  9 10  1  0
 10 11  1  0
 11 12  1  0
 13 14  1  0
 13 19  1  0
 14 15  1  0
 15 16  1  0
 15 17  1  0
 15 18  1  0
M  END
>  <Gold.Gold.Protein.RotatedWaterAtoms>  (246) 


>  <Gold.Id.Protein>  (246) 


>  <Gold.PLP.Chemscore.CHOScore>  (246) 
0.0000

>  <Gold.PLP.Chemscore.Hbond>  (246) 
1.6720

>  <Gold.PLP.Chemscore.Internal.Correction>  (246) 
0.6838

>  <Gold.PLP.Chemscore.Metal>  (246) 
0.0000

>  <Gold.PLP.Fitness>  (246) 
44.5127

>  <Gold.PLP.PLP>  (246) 
-40.4797

>  <Gold.PLP.ligand.clash>  (246) 
0.0034

>  <Gold.PLP.ligand.torsion>  (246) 
0.8317

>  <Gold.PLP.part.buried>  (246) 
-8.4534

>  <Gold.PLP.part.hbond>  (246) 
-3.7759

>  <Gold.PLP.part.metal>  (246) 
0.0000

>  <Gold.PLP.part.nonpolar>  (246) 
-29.1916

>  <Gold.PLP.part.repulsive>  (246) 
0.0303

>  <Gold.Protein.RotatedAtoms>  (246) 


>  <Gold.Protein.RotatedTorsions>  (246) 


>  <Gold.Protein.RotatedWaterAtoms>  (246) 


>  <Gold.Version>  (246) 
5.3.0

>  <PLP.Chemscore.CHOScore>  (246) 


>  <PLP.Chemscore.Hbond>  (246) 


>  <PLP.Chemscore.Internal.Correction>  (246) 


>  <PLP.Chemscore.Metal>  (246) 


>  <PLP.Fitness>  (246) 


>  <PLP.PLP>  (246) 


>  <PLP.ligand.clash>  (246) 


>  <PLP.ligand.torsion>  (246) 


>  <PLP.part.buried>  (246) 


>  <PLP.part.hbond>  (246) 


>  <PLP.part.metal>  (246) 


>  <PLP.part.nonpolar>  (246) 


>  <PLP.part.repulsive>  (246) 


>  <Version>  (246) 


$$$$
246|Compound_161|Compounds_3D_F|sdf|35|dock5|1
     RDKit          3D

 19 18  0  0  0  0  0  0  0  0999 V2000
  -10.0176  -21.7303   11.8195 O   0  0  0  0  0  0  0  0  0  0  0  0
  -11.1557  -21.4130   12.4786 C   0  0  0  0  0  0  0  0  0  0  0  0
  -11.7976  -22.2799   13.0528 O   0  0  0  0  0  0  0  0  0  0  0  0
  -11.4641  -19.9218   12.4137 C   0  0  0  0  0  0  0  0  0  0  0  0
  -10.3887  -19.2376   11.6918 N   0  0  0  0  0  0  0  0  0  0  0  0
  -10.1624  -17.8832   11.7880 C   0  0  0  0  0  0  0  0  0  0  0  0
  -10.8384  -17.1296   12.4811 O   0  0  0  0  0  0  0  0  0  0  0  0
   -8.9839  -17.4238   10.9460 C   0  0  0  0  0  0  0  0  0  0  0  0
   -7.9293  -16.6815   11.7681 C   0  0  0  0  0  0  0  0  0  0  0  0
   -7.0469  -15.7975   10.8825 C   0  0  0  0  0  0  0  0  0  0  0  0
   -7.6621  -14.4786   10.7178 N   0  0  0  0  0  0  0  0  0  0  0  0
   -7.8050  -13.8013   11.9990 C   0  0  0  0  0  0  0  0  0  0  0  0
  -12.8358  -19.6894   11.7442 C   0  0  0  0  0  0  0  0  0  0  0  0
  -12.6920  -19.8751   10.3281 O   0  0  0  0  0  0  0  0  0  0  0  0
  -13.8325  -19.6428    9.4878 C   0  0  0  0  0  0  0  0  0  0  0  0
  -13.8885  -18.2076    8.9540 C   0  0  0  0  0  0  0  0  0  0  0  0
  -13.6490  -20.5995    8.3005 C   0  0  0  0  0  0  0  0  0  0  0  0
  -15.1354  -20.0087   10.2082 C   0  0  0  0  0  0  0  0  0  0  0  0
  -13.3014  -18.2526   11.9954 C   0  0  0  0  0  0  0  0  0  0  0  0
  1  2  1  0
  2  3  2  0
  2  4  1  0
  4  5  1  0
  4 13  1  0
  5  6  1  0
  6  7  2  0
  6  8  1  0
  8  9  1  0
  9 10  1  0
 10 11  1  0
 11 12  1  0
 13 14  1  0
 13 19  1  0
 14 15  1  0
 15 16  1  0
 15 17  1  0
 15 18  1  0
M  END
>  <Gold.Gold.Protein.RotatedWaterAtoms>  (247) 


>  <Gold.Id.Protein>  (247) 


>  <Gold.PLP.Chemscore.CHOScore>  (247) 
0.0000

>  <Gold.PLP.Chemscore.Hbond>  (247) 
2.0000

>  <Gold.PLP.Chemscore.Internal.Correction>  (247) 
0.6838

>  <Gold.PLP.Chemscore.Metal>  (247) 
0.0000

>  <Gold.PLP.Fitness>  (247) 
46.3142

>  <Gold.PLP.PLP>  (247) 
-42.2628

>  <Gold.PLP.ligand.clash>  (247) 
0.0000

>  <Gold.PLP.ligand.torsion>  (247) 
1.3162

>  <Gold.PLP.part.buried>  (247) 
-6.7872

>  <Gold.PLP.part.hbond>  (247) 
-2.0000

>  <Gold.PLP.part.metal>  (247) 
0.0000

>  <Gold.PLP.part.nonpolar>  (247) 
-33.8662

>  <Gold.PLP.part.repulsive>  (247) 
0.1449

>  <Gold.Protein.RotatedAtoms>  (247) 


>  <Gold.Protein.RotatedTorsions>  (247) 


>  <Gold.Protein.RotatedWaterAtoms>  (247) 


>  <Gold.Version>  (247) 
5.3.0

>  <PLP.Chemscore.CHOScore>  (247) 


>  <PLP.Chemscore.Hbond>  (247) 


>  <PLP.Chemscore.Internal.Correction>  (247) 


>  <PLP.Chemscore.Metal>  (247) 


>  <PLP.Fitness>  (247) 


>  <PLP.PLP>  (247) 


>  <PLP.ligand.clash>  (247) 


>  <PLP.ligand.torsion>  (247) 


>  <PLP.part.buried>  (247) 


>  <PLP.part.hbond>  (247) 


>  <PLP.part.metal>  (247) 


>  <PLP.part.nonpolar>  (247) 


>  <PLP.part.repulsive>  (247) 


>  <Version>  (247) 


$$$$
247|Compound_161|Compounds_3D_F|sdf|35|dock6|1
     RDKit          3D

 19 18  0  0  0  0  0  0  0  0999 V2000
  -12.8107  -18.1943   12.4907 O   0  0  0  0  0  0  0  0  0  0  0  0
  -11.8160  -19.0594   12.1862 C   0  0  0  0  0  0  0  0  0  0  0  0
  -11.4803  -19.9191   12.9870 O   0  0  0  0  0  0  0  0  0  0  0  0
  -11.2505  -18.8213   10.7911 C   0  0  0  0  0  0  0  0  0  0  0  0
   -9.8142  -18.5520   10.8922 N   0  0  0  0  0  0  0  0  0  0  0  0
   -9.3037  -17.3743   11.3897 C   0  0  0  0  0  0  0  0  0  0  0  0
  -10.0011  -16.4473   11.7891 O   0  0  0  0  0  0  0  0  0  0  0  0
   -7.7844  -17.3484   11.3933 C   0  0  0  0  0  0  0  0  0  0  0  0
   -7.2193  -16.1841   12.2080 C   0  0  0  0  0  0  0  0  0  0  0  0
   -7.5860  -14.8337   11.5865 C   0  0  0  0  0  0  0  0  0  0  0  0
   -7.2097  -13.7455   12.4916 N   0  0  0  0  0  0  0  0  0  0  0  0
   -5.7679  -13.5411   12.4976 C   0  0  0  0  0  0  0  0  0  0  0  0
  -11.5386  -20.0370    9.8841 C   0  0  0  0  0  0  0  0  0  0  0  0
  -12.8710  -20.5008   10.1489 O   0  0  0  0  0  0  0  0  0  0  0  0
  -13.9418  -20.0132    9.3264 C   0  0  0  0  0  0  0  0  0  0  0  0
  -13.7401  -18.5555    8.8996 C   0  0  0  0  0  0  0  0  0  0  0  0
  -13.9106  -20.8990    8.0722 C   0  0  0  0  0  0  0  0  0  0  0  0
  -15.2985  -20.1975   10.0163 C   0  0  0  0  0  0  0  0  0  0  0  0
  -10.5621  -21.1711   10.2072 C   0  0  0  0  0  0  0  0  0  0  0  0
  1  2  1  0
  2  3  2  0
  2  4  1  0
  4  5  1  0
  4 13  1  0
  5  6  1  0
  6  7  2  0
  6  8  1  0
  8  9  1  0
  9 10  1  0
 10 11  1  0
 11 12  1  0
 13 14  1  0
 13 19  1  0
 14 15  1  0
 15 16  1  0
 15 17  1  0
 15 18  1  0
M  END
>  <Gold.Gold.Protein.RotatedWaterAtoms>  (248) 


>  <Gold.Id.Protein>  (248) 


>  <Gold.PLP.Chemscore.CHOScore>  (248) 
0.0000

>  <Gold.PLP.Chemscore.Hbond>  (248) 
0.8000

>  <Gold.PLP.Chemscore.Internal.Correction>  (248) 
0.6838

>  <Gold.PLP.Chemscore.Metal>  (248) 
0.0000

>  <Gold.PLP.Fitness>  (248) 
43.4818

>  <Gold.PLP.PLP>  (248) 
-43.3510

>  <Gold.PLP.ligand.clash>  (248) 
0.0000

>  <Gold.PLP.ligand.torsion>  (248) 
1.4765

>  <Gold.PLP.part.buried>  (248) 
-7.5789

>  <Gold.PLP.part.hbond>  (248) 
-2.2437

>  <Gold.PLP.part.metal>  (248) 
0.0000

>  <Gold.PLP.part.nonpolar>  (248) 
-33.2524

>  <Gold.PLP.part.repulsive>  (248) 
0.1053

>  <Gold.Protein.RotatedAtoms>  (248) 


>  <Gold.Protein.RotatedTorsions>  (248) 


>  <Gold.Protein.RotatedWaterAtoms>  (248) 


>  <Gold.Version>  (248) 
5.3.0

>  <PLP.Chemscore.CHOScore>  (248) 


>  <PLP.Chemscore.Hbond>  (248) 


>  <PLP.Chemscore.Internal.Correction>  (248) 


>  <PLP.Chemscore.Metal>  (248) 


>  <PLP.Fitness>  (248) 


>  <PLP.PLP>  (248) 


>  <PLP.ligand.clash>  (248) 


>  <PLP.ligand.torsion>  (248) 


>  <PLP.part.buried>  (248) 


>  <PLP.part.hbond>  (248) 


>  <PLP.part.metal>  (248) 


>  <PLP.part.nonpolar>  (248) 


>  <PLP.part.repulsive>  (248) 


>  <Version>  (248) 


$$$$
248|Compound_161|Compounds_3D_F|sdf|35|dock7|1
     RDKit          3D

 19 18  0  0  0  0  0  0  0  0999 V2000
  -13.9568  -20.9385   13.4382 O   0  0  0  0  0  0  0  0  0  0  0  0
  -12.6992  -20.7233   12.9881 C   0  0  0  0  0  0  0  0  0  0  0  0
  -11.7811  -21.4399   13.3580 O   0  0  0  0  0  0  0  0  0  0  0  0
  -12.6277  -19.5575   12.0090 C   0  0  0  0  0  0  0  0  0  0  0  0
  -11.2288  -19.3148   11.6489 N   0  0  0  0  0  0  0  0  0  0  0  0
  -10.5845  -18.1241   11.8981 C   0  0  0  0  0  0  0  0  0  0  0  0
  -11.1208  -17.1624   12.4391 O   0  0  0  0  0  0  0  0  0  0  0  0
   -9.1377  -18.1314   11.4337 C   0  0  0  0  0  0  0  0  0  0  0  0
   -8.4104  -16.8260   11.7592 C   0  0  0  0  0  0  0  0  0  0  0  0
   -6.9561  -16.8592   11.2814 C   0  0  0  0  0  0  0  0  0  0  0  0
   -6.1084  -16.0947   12.1989 N   0  0  0  0  0  0  0  0  0  0  0  0
   -6.5465  -14.7088   12.2882 C   0  0  0  0  0  0  0  0  0  0  0  0
  -13.4923  -19.8524   10.7643 C   0  0  0  0  0  0  0  0  0  0  0  0
  -12.8546  -20.8848    9.9974 O   0  0  0  0  0  0  0  0  0  0  0  0
  -13.6693  -21.7152    9.1563 C   0  0  0  0  0  0  0  0  0  0  0  0
  -14.5790  -20.9024    8.2293 C   0  0  0  0  0  0  0  0  0  0  0  0
  -12.6715  -22.5032    8.2948 C   0  0  0  0  0  0  0  0  0  0  0  0
  -14.4861  -22.7124    9.9863 C   0  0  0  0  0  0  0  0  0  0  0  0
  -13.5938  -18.5987    9.8914 C   0  0  0  0  0  0  0  0  0  0  0  0
  1  2  1  0
  2  3  2  0
  2  4  1  0
  4  5  1  0
  4 13  1  0
  5  6  1  0
  6  7  2  0
  6  8  1  0
  8  9  1  0
  9 10  1  0
 10 11  1  0
 11 12  1  0
 13 14  1  0
 13 19  1  0
 14 15  1  0
 15 16  1  0
 15 17  1  0
 15 18  1  0
M  END
>  <Gold.Gold.Protein.RotatedWaterAtoms>  (249) 


>  <Gold.Id.Protein>  (249) 


>  <Gold.PLP.Chemscore.CHOScore>  (249) 
0.0000

>  <Gold.PLP.Chemscore.Hbond>  (249) 
2.6240

>  <Gold.PLP.Chemscore.Internal.Correction>  (249) 
0.6838

>  <Gold.PLP.Chemscore.Metal>  (249) 
0.0000

>  <Gold.PLP.Fitness>  (249) 
43.7514

>  <Gold.PLP.PLP>  (249) 
-36.6740

>  <Gold.PLP.ligand.clash>  (249) 
0.0000

>  <Gold.PLP.ligand.torsion>  (249) 
0.7392

>  <Gold.PLP.part.buried>  (249) 
-5.7250

>  <Gold.PLP.part.hbond>  (249) 
-3.0000

>  <Gold.PLP.part.metal>  (249) 
0.0000

>  <Gold.PLP.part.nonpolar>  (249) 
-28.7079

>  <Gold.PLP.part.repulsive>  (249) 
0.1321

>  <Gold.Protein.RotatedAtoms>  (249) 


>  <Gold.Protein.RotatedTorsions>  (249) 


>  <Gold.Protein.RotatedWaterAtoms>  (249) 


>  <Gold.Version>  (249) 
5.3.0

>  <PLP.Chemscore.CHOScore>  (249) 


>  <PLP.Chemscore.Hbond>  (249) 


>  <PLP.Chemscore.Internal.Correction>  (249) 


>  <PLP.Chemscore.Metal>  (249) 


>  <PLP.Fitness>  (249) 


>  <PLP.PLP>  (249) 


>  <PLP.ligand.clash>  (249) 


>  <PLP.ligand.torsion>  (249) 


>  <PLP.part.buried>  (249) 


>  <PLP.part.hbond>  (249) 


>  <PLP.part.metal>  (249) 


>  <PLP.part.nonpolar>  (249) 


>  <PLP.part.repulsive>  (249) 


>  <Version>  (249) 


$$$$
249|Compound_161|Compounds_3D_F|sdf|35|dock8|1
     RDKit          3D

 19 18  0  0  0  0  0  0  0  0999 V2000
  -13.8978  -19.9789   13.4298 O   0  0  0  0  0  0  0  0  0  0  0  0
  -13.2034  -20.4422   12.3650 C   0  0  0  0  0  0  0  0  0  0  0  0
  -12.7672  -21.5836   12.3630 O   0  0  0  0  0  0  0  0  0  0  0  0
  -13.0876  -19.4042   11.2550 C   0  0  0  0  0  0  0  0  0  0  0  0
  -11.6719  -19.1489   10.9790 N   0  0  0  0  0  0  0  0  0  0  0  0
  -10.9484  -18.1644   11.6132 C   0  0  0  0  0  0  0  0  0  0  0  0
  -11.4212  -17.4137   12.4607 O   0  0  0  0  0  0  0  0  0  0  0  0
   -9.5014  -18.1103   11.1525 C   0  0  0  0  0  0  0  0  0  0  0  0
   -8.7616  -16.8821   11.6845 C   0  0  0  0  0  0  0  0  0  0  0  0
   -7.2481  -17.0111   11.4921 C   0  0  0  0  0  0  0  0  0  0  0  0
   -6.5442  -16.3924   12.6176 N   0  0  0  0  0  0  0  0  0  0  0  0
   -5.1119  -16.6451   12.5451 C   0  0  0  0  0  0  0  0  0  0  0  0
  -13.8348  -19.8870    9.9932 C   0  0  0  0  0  0  0  0  0  0  0  0
  -13.1002  -20.9756    9.4138 O   0  0  0  0  0  0  0  0  0  0  0  0
  -13.8326  -22.0368    8.7827 C   0  0  0  0  0  0  0  0  0  0  0  0
  -14.7905  -21.5289    7.7000 C   0  0  0  0  0  0  0  0  0  0  0  0
  -12.7618  -22.9132    8.1165 C   0  0  0  0  0  0  0  0  0  0  0  0
  -14.5793  -22.8866    9.8175 C   0  0  0  0  0  0  0  0  0  0  0  0
  -13.9066  -18.7548    8.9650 C   0  0  0  0  0  0  0  0  0  0  0  0
  1  2  1  0
  2  3  2  0
  2  4  1  0
  4  5  1  0
  4 13  1  0
  5  6  1  0
  6  7  2  0
  6  8  1  0
  8  9  1  0
  9 10  1  0
 10 11  1  0
 11 12  1  0
 13 14  1  0
 13 19  1  0
 14 15  1  0
 15 16  1  0
 15 17  1  0
 15 18  1  0
M  END
>  <Gold.Gold.Protein.RotatedWaterAtoms>  (250) 


>  <Gold.Id.Protein>  (250) 


>  <Gold.PLP.Chemscore.CHOScore>  (250) 
0.0000

>  <Gold.PLP.Chemscore.Hbond>  (250) 
2.0000

>  <Gold.PLP.Chemscore.Internal.Correction>  (250) 
0.6838

>  <Gold.PLP.Chemscore.Metal>  (250) 
0.0000

>  <Gold.PLP.Fitness>  (250) 
44.2411

>  <Gold.PLP.PLP>  (250) 
-40.3128

>  <Gold.PLP.ligand.clash>  (250) 
0.0000

>  <Gold.PLP.ligand.torsion>  (250) 
1.3777

>  <Gold.PLP.part.buried>  (250) 
-4.3445

>  <Gold.PLP.part.hbond>  (250) 
-2.6502

>  <Gold.PLP.part.metal>  (250) 
0.0000

>  <Gold.PLP.part.nonpolar>  (250) 
-32.0631

>  <Gold.PLP.part.repulsive>  (250) 
0.1454

>  <Gold.Protein.RotatedAtoms>  (250) 


>  <Gold.Protein.RotatedTorsions>  (250) 


>  <Gold.Protein.RotatedWaterAtoms>  (250) 


>  <Gold.Version>  (250) 
5.3.0

>  <PLP.Chemscore.CHOScore>  (250) 


>  <PLP.Chemscore.Hbond>  (250) 


>  <PLP.Chemscore.Internal.Correction>  (250) 


>  <PLP.Chemscore.Metal>  (250) 


>  <PLP.Fitness>  (250) 


>  <PLP.PLP>  (250) 


>  <PLP.ligand.clash>  (250) 


>  <PLP.ligand.torsion>  (250) 


>  <PLP.part.buried>  (250) 


>  <PLP.part.hbond>  (250) 


>  <PLP.part.metal>  (250) 


>  <PLP.part.nonpolar>  (250) 


>  <PLP.part.repulsive>  (250) 


>  <Version>  (250) 


$$$$
250|Compound_161|Compounds_3D_F|sdf|35|dock9|1
     RDKit          3D

 19 18  0  0  0  0  0  0  0  0999 V2000
  -11.2966  -20.9373   13.1064 O   0  0  0  0  0  0  0  0  0  0  0  0
  -10.6293  -20.8464   11.9330 C   0  0  0  0  0  0  0  0  0  0  0  0
   -9.8316  -21.7135   11.6089 O   0  0  0  0  0  0  0  0  0  0  0  0
  -11.0218  -19.6055   11.1399 C   0  0  0  0  0  0  0  0  0  0  0  0
   -9.8782  -18.6924   11.0756 N   0  0  0  0  0  0  0  0  0  0  0  0
   -9.8650  -17.4604   11.6897 C   0  0  0  0  0  0  0  0  0  0  0  0
  -10.8052  -17.0165   12.3410 O   0  0  0  0  0  0  0  0  0  0  0  0
   -8.5598  -16.7123   11.4762 C   0  0  0  0  0  0  0  0  0  0  0  0
   -8.5650  -15.3266   12.1233 C   0  0  0  0  0  0  0  0  0  0  0  0
   -7.2710  -14.5636   11.8271 C   0  0  0  0  0  0  0  0  0  0  0  0
   -7.1611  -13.3997   12.7093 N   0  0  0  0  0  0  0  0  0  0  0  0
   -5.9082  -12.6905   12.4906 C   0  0  0  0  0  0  0  0  0  0  0  0
  -11.5101  -20.0053    9.7309 C   0  0  0  0  0  0  0  0  0  0  0  0
  -12.6841  -20.8200    9.8668 O   0  0  0  0  0  0  0  0  0  0  0  0
  -13.8480  -20.4772    9.0995 C   0  0  0  0  0  0  0  0  0  0  0  0
  -13.8970  -21.1991    7.7488 C   0  0  0  0  0  0  0  0  0  0  0  0
  -15.0353  -20.9511    9.9508 C   0  0  0  0  0  0  0  0  0  0  0  0
  -13.9611  -18.9598    8.9122 C   0  0  0  0  0  0  0  0  0  0  0  0
  -10.4330  -20.8296    9.0206 C   0  0  0  0  0  0  0  0  0  0  0  0
  1  2  1  0
  2  3  2  0
  2  4  1  0
  4  5  1  0
  4 13  1  0
  5  6  1  0
  6  7  2  0
  6  8  1  0
  8  9  1  0
  9 10  1  0
 10 11  1  0
 11 12  1  0
 13 14  1  0
 13 19  1  0
 14 15  1  0
 15 16  1  0
 15 17  1  0
 15 18  1  0
M  END
>  <Gold.Gold.Protein.RotatedWaterAtoms>  (251) 


>  <Gold.Id.Protein>  (251) 


>  <Gold.PLP.Chemscore.CHOScore>  (251) 
0.0000

>  <Gold.PLP.Chemscore.Hbond>  (251) 
1.7800

>  <Gold.PLP.Chemscore.Internal.Correction>  (251) 
0.6838

>  <Gold.PLP.Chemscore.Metal>  (251) 
0.0000

>  <Gold.PLP.Fitness>  (251) 
42.8032

>  <Gold.PLP.PLP>  (251) 
-39.6526

>  <Gold.PLP.ligand.clash>  (251) 
0.0000

>  <Gold.PLP.ligand.torsion>  (251) 
1.4366

>  <Gold.PLP.part.buried>  (251) 
-6.0908

>  <Gold.PLP.part.hbond>  (251) 
-1.9601

>  <Gold.PLP.part.metal>  (251) 
0.0000

>  <Gold.PLP.part.nonpolar>  (251) 
-32.1515

>  <Gold.PLP.part.repulsive>  (251) 
0.0933

>  <Gold.Protein.RotatedAtoms>  (251) 


>  <Gold.Protein.RotatedTorsions>  (251) 


>  <Gold.Protein.RotatedWaterAtoms>  (251) 


>  <Gold.Version>  (251) 
5.3.0

>  <PLP.Chemscore.CHOScore>  (251) 


>  <PLP.Chemscore.Hbond>  (251) 


>  <PLP.Chemscore.Internal.Correction>  (251) 


>  <PLP.Chemscore.Metal>  (251) 


>  <PLP.Fitness>  (251) 


>  <PLP.PLP>  (251) 


>  <PLP.ligand.clash>  (251) 


>  <PLP.ligand.torsion>  (251) 


>  <PLP.part.buried>  (251) 


>  <PLP.part.hbond>  (251) 


>  <PLP.part.metal>  (251) 


>  <PLP.part.nonpolar>  (251) 


>  <PLP.part.repulsive>  (251) 


>  <Version>  (251) 


$$$$
251|Compound_162|Compounds_3D_F|sdf|36|dock1|1
     RDKit          3D

 18 17  0  0  0  0  0  0  0  0999 V2000
  -13.9283  -19.4026    8.2962 O   0  0  0  0  0  0  0  0  0  0  0  0
  -13.8653  -20.0592    9.4717 C   0  0  0  0  0  0  0  0  0  0  0  0
  -14.1515  -21.2435    9.5593 O   0  0  0  0  0  0  0  0  0  0  0  0
  -13.4076  -19.1726   10.6076 C   0  0  0  0  0  0  0  0  0  0  0  0
  -12.0668  -18.6863   10.3297 N   0  0  0  0  0  0  0  0  0  0  0  0
  -11.2568  -18.1990   11.3318 C   0  0  0  0  0  0  0  0  0  0  0  0
  -11.5968  -18.1387   12.5137 O   0  0  0  0  0  0  0  0  0  0  0  0
   -9.8640  -17.7518   10.8671 C   0  0  0  0  0  0  0  0  0  0  0  0
   -9.5406  -16.5533   11.6316 N   0  0  0  0  0  0  0  0  0  0  0  0
   -8.6636  -15.5852   11.1934 C   0  0  0  0  0  0  0  0  0  0  0  0
   -8.0654  -15.6410   10.1211 O   0  0  0  0  0  0  0  0  0  0  0  0
   -8.5125  -14.4076   12.1730 C   0  0  0  0  0  0  0  0  0  0  0  0
   -9.8346  -14.0510   12.7163 N   0  0  0  0  0  0  0  0  0  0  0  0
   -7.8631  -13.2076   11.4684 C   0  0  0  0  0  0  0  0  0  0  0  0
   -6.8924  -12.4430   12.3769 C   0  0  0  0  0  0  0  0  0  0  0  0
   -5.5118  -13.0984   12.3838 C   0  0  0  0  0  0  0  0  0  0  0  0
   -4.6691  -12.4925   13.4070 N   0  0  0  0  0  0  0  0  0  0  0  0
   -8.8482  -18.8620   11.1036 C   0  0  0  0  0  0  0  0  0  0  0  0
  1  2  1  0
  2  3  2  0
  2  4  1  0
  4  5  1  0
  5  6  1  0
  6  7  2  0
  6  8  1  0
  8  9  1  0
  8 18  1  0
  9 10  1  0
 10 11  2  0
 10 12  1  0
 12 13  1  0
 12 14  1  0
 14 15  1  0
 15 16  1  0
 16 17  1  0
M  END
>  <Gold.Gold.Protein.RotatedWaterAtoms>  (252) 


>  <Gold.Id.Protein>  (252) 


>  <Gold.PLP.Chemscore.CHOScore>  (252) 
0.0000

>  <Gold.PLP.Chemscore.Hbond>  (252) 
5.0000

>  <Gold.PLP.Chemscore.Internal.Correction>  (252) 
0.4316

>  <Gold.PLP.Chemscore.Metal>  (252) 
0.0000

>  <Gold.PLP.Fitness>  (252) 
56.0228

>  <Gold.PLP.PLP>  (252) 
-45.0374

>  <Gold.PLP.ligand.clash>  (252) 
0.0000

>  <Gold.PLP.ligand.torsion>  (252) 
2.2231

>  <Gold.PLP.part.buried>  (252) 
-6.6328

>  <Gold.PLP.part.hbond>  (252) 
-9.3045

>  <Gold.PLP.part.metal>  (252) 
0.0000

>  <Gold.PLP.part.nonpolar>  (252) 
-28.4131

>  <Gold.PLP.part.repulsive>  (252) 
0.3188

>  <Gold.Protein.RotatedAtoms>  (252) 


>  <Gold.Protein.RotatedTorsions>  (252) 


>  <Gold.Protein.RotatedWaterAtoms>  (252) 


>  <Gold.Version>  (252) 
5.3.0

>  <PLP.Chemscore.CHOScore>  (252) 


>  <PLP.Chemscore.Hbond>  (252) 


>  <PLP.Chemscore.Internal.Correction>  (252) 


>  <PLP.Chemscore.Metal>  (252) 


>  <PLP.Fitness>  (252) 


>  <PLP.PLP>  (252) 


>  <PLP.ligand.clash>  (252) 


>  <PLP.ligand.torsion>  (252) 


>  <PLP.part.buried>  (252) 


>  <PLP.part.hbond>  (252) 


>  <PLP.part.metal>  (252) 


>  <PLP.part.nonpolar>  (252) 


>  <PLP.part.repulsive>  (252) 


>  <Version>  (252) 


$$$$
252|Compound_162|Compounds_3D_F|sdf|36|dock2|1
     RDKit          3D

 18 17  0  0  0  0  0  0  0  0999 V2000
  -13.7251  -20.4642   10.5265 O   0  0  0  0  0  0  0  0  0  0  0  0
  -13.9768  -19.8487    9.3541 C   0  0  0  0  0  0  0  0  0  0  0  0
  -14.5020  -20.4379    8.4218 O   0  0  0  0  0  0  0  0  0  0  0  0
  -13.5469  -18.3992    9.3558 C   0  0  0  0  0  0  0  0  0  0  0  0
  -12.0991  -18.3257    9.4553 N   0  0  0  0  0  0  0  0  0  0  0  0
  -11.4520  -18.4904   10.6604 C   0  0  0  0  0  0  0  0  0  0  0  0
  -12.0355  -18.7078   11.7226 O   0  0  0  0  0  0  0  0  0  0  0  0
   -9.9215  -18.4081   10.5804 C   0  0  0  0  0  0  0  0  0  0  0  0
   -9.5209  -17.3254   11.4707 N   0  0  0  0  0  0  0  0  0  0  0  0
   -8.8165  -16.2177   11.0521 C   0  0  0  0  0  0  0  0  0  0  0  0
   -8.4529  -16.0384    9.8918 O   0  0  0  0  0  0  0  0  0  0  0  0
   -8.5379  -15.2075   12.1796 C   0  0  0  0  0  0  0  0  0  0  0  0
   -9.8088  -14.6128   12.6281 N   0  0  0  0  0  0  0  0  0  0  0  0
   -7.5617  -14.1249   11.6966 C   0  0  0  0  0  0  0  0  0  0  0  0
   -6.6062  -13.6555   12.8006 C   0  0  0  0  0  0  0  0  0  0  0  0
   -5.6518  -12.5800   12.2831 C   0  0  0  0  0  0  0  0  0  0  0  0
   -4.5141  -12.4376   13.1828 N   0  0  0  0  0  0  0  0  0  0  0  0
   -9.3004  -19.7362   10.9935 C   0  0  0  0  0  0  0  0  0  0  0  0
  1  2  1  0
  2  3  2  0
  2  4  1  0
  4  5  1  0
  5  6  1  0
  6  7  2  0
  6  8  1  0
  8  9  1  0
  8 18  1  0
  9 10  1  0
 10 11  2  0
 10 12  1  0
 12 13  1  0
 12 14  1  0
 14 15  1  0
 15 16  1  0
 16 17  1  0
M  END
>  <Gold.Gold.Protein.RotatedWaterAtoms>  (253) 


>  <Gold.Id.Protein>  (253) 


>  <Gold.PLP.Chemscore.CHOScore>  (253) 
0.0000

>  <Gold.PLP.Chemscore.Hbond>  (253) 
3.9200

>  <Gold.PLP.Chemscore.Internal.Correction>  (253) 
0.3735

>  <Gold.PLP.Chemscore.Metal>  (253) 
0.0000

>  <Gold.PLP.Fitness>  (253) 
51.9206

>  <Gold.PLP.PLP>  (253) 
-41.4846

>  <Gold.PLP.ligand.clash>  (253) 
0.0000

>  <Gold.PLP.ligand.torsion>  (253) 
0.8488

>  <Gold.PLP.part.buried>  (253) 
-9.2012

>  <Gold.PLP.part.hbond>  (253) 
-5.6975

>  <Gold.PLP.part.metal>  (253) 
0.0000

>  <Gold.PLP.part.nonpolar>  (253) 
-28.5983

>  <Gold.PLP.part.repulsive>  (253) 
1.1863

>  <Gold.Protein.RotatedAtoms>  (253) 


>  <Gold.Protein.RotatedTorsions>  (253) 


>  <Gold.Protein.RotatedWaterAtoms>  (253) 


>  <Gold.Version>  (253) 
5.3.0

>  <PLP.Chemscore.CHOScore>  (253) 


>  <PLP.Chemscore.Hbond>  (253) 


>  <PLP.Chemscore.Internal.Correction>  (253) 


>  <PLP.Chemscore.Metal>  (253) 


>  <PLP.Fitness>  (253) 


>  <PLP.PLP>  (253) 


>  <PLP.ligand.clash>  (253) 


>  <PLP.ligand.torsion>  (253) 


>  <PLP.part.buried>  (253) 


>  <PLP.part.hbond>  (253) 


>  <PLP.part.metal>  (253) 


>  <PLP.part.nonpolar>  (253) 


>  <PLP.part.repulsive>  (253) 


>  <Version>  (253) 


$$$$
253|Compound_162|Compounds_3D_F|sdf|36|dock3|1
     RDKit          3D

 18 17  0  0  0  0  0  0  0  0999 V2000
   -6.4274  -17.6017    5.8271 O   0  0  0  0  0  0  0  0  0  0  0  0
   -7.5171  -17.9841    6.5223 C   0  0  0  0  0  0  0  0  0  0  0  0
   -7.9269  -19.1343    6.4882 O   0  0  0  0  0  0  0  0  0  0  0  0
   -8.1264  -16.8503    7.3155 C   0  0  0  0  0  0  0  0  0  0  0  0
   -7.9874  -17.1258    8.7354 N   0  0  0  0  0  0  0  0  0  0  0  0
   -9.0748  -17.1074    9.5811 C   0  0  0  0  0  0  0  0  0  0  0  0
  -10.2228  -16.8622    9.2093 O   0  0  0  0  0  0  0  0  0  0  0  0
   -8.7532  -17.4462   11.0431 C   0  0  0  0  0  0  0  0  0  0  0  0
   -8.9166  -16.2093   11.7972 N   0  0  0  0  0  0  0  0  0  0  0  0
   -8.0793  -15.1228   11.6670 C   0  0  0  0  0  0  0  0  0  0  0  0
   -7.1120  -15.0935   10.9092 O   0  0  0  0  0  0  0  0  0  0  0  0
   -8.4800  -13.9313   12.5552 C   0  0  0  0  0  0  0  0  0  0  0  0
   -9.9312  -13.7039   12.4425 N   0  0  0  0  0  0  0  0  0  0  0  0
   -7.6915  -12.6766   12.1523 C   0  0  0  0  0  0  0  0  0  0  0  0
   -6.1854  -12.8186   12.4045 C   0  0  0  0  0  0  0  0  0  0  0  0
   -5.5108  -11.4506   12.4986 C   0  0  0  0  0  0  0  0  0  0  0  0
   -4.0611  -11.6002   12.4985 N   0  0  0  0  0  0  0  0  0  0  0  0
   -9.6849  -18.5407   11.5474 C   0  0  0  0  0  0  0  0  0  0  0  0
  1  2  1  0
  2  3  2  0
  2  4  1  0
  4  5  1  0
  5  6  1  0
  6  7  2  0
  6  8  1  0
  8  9  1  0
  8 18  1  0
  9 10  1  0
 10 11  2  0
 10 12  1  0
 12 13  1  0
 12 14  1  0
 14 15  1  0
 15 16  1  0
 16 17  1  0
M  END
>  <Gold.Gold.Protein.RotatedWaterAtoms>  (254) 


>  <Gold.Id.Protein>  (254) 


>  <Gold.PLP.Chemscore.CHOScore>  (254) 
0.0000

>  <Gold.PLP.Chemscore.Hbond>  (254) 
4.4632

>  <Gold.PLP.Chemscore.Internal.Correction>  (254) 
0.3735

>  <Gold.PLP.Chemscore.Metal>  (254) 
0.0000

>  <Gold.PLP.Fitness>  (254) 
48.9754

>  <Gold.PLP.PLP>  (254) 
-36.6694

>  <Gold.PLP.ligand.clash>  (254) 
0.0000

>  <Gold.PLP.ligand.torsion>  (254) 
0.7285

>  <Gold.PLP.part.buried>  (254) 
-3.8731

>  <Gold.PLP.part.hbond>  (254) 
-6.6324

>  <Gold.PLP.part.metal>  (254) 
0.0000

>  <Gold.PLP.part.nonpolar>  (254) 
-26.4065

>  <Gold.PLP.part.repulsive>  (254) 
0.2599

>  <Gold.Protein.RotatedAtoms>  (254) 


>  <Gold.Protein.RotatedTorsions>  (254) 


>  <Gold.Protein.RotatedWaterAtoms>  (254) 


>  <Gold.Version>  (254) 
5.3.0

>  <PLP.Chemscore.CHOScore>  (254) 


>  <PLP.Chemscore.Hbond>  (254) 


>  <PLP.Chemscore.Internal.Correction>  (254) 


>  <PLP.Chemscore.Metal>  (254) 


>  <PLP.Fitness>  (254) 


>  <PLP.PLP>  (254) 


>  <PLP.ligand.clash>  (254) 


>  <PLP.ligand.torsion>  (254) 


>  <PLP.part.buried>  (254) 


>  <PLP.part.hbond>  (254) 


>  <PLP.part.metal>  (254) 


>  <PLP.part.nonpolar>  (254) 


>  <PLP.part.repulsive>  (254) 


>  <Version>  (254) 


$$$$
254|Compound_162|Compounds_3D_F|sdf|36|dock4|1
     RDKit          3D

 18 17  0  0  0  0  0  0  0  0999 V2000
  -14.7154  -22.0083   13.0160 O   0  0  0  0  0  0  0  0  0  0  0  0
  -13.6268  -21.6579   12.3024 C   0  0  0  0  0  0  0  0  0  0  0  0
  -12.6621  -22.4002   12.2007 O   0  0  0  0  0  0  0  0  0  0  0  0
  -13.7621  -20.2904   11.6717 C   0  0  0  0  0  0  0  0  0  0  0  0
  -12.4892  -19.8993   11.0903 N   0  0  0  0  0  0  0  0  0  0  0  0
  -11.8259  -18.7664   11.5080 C   0  0  0  0  0  0  0  0  0  0  0  0
  -12.2492  -18.0141   12.3861 O   0  0  0  0  0  0  0  0  0  0  0  0
  -10.4835  -18.5167   10.8070 C   0  0  0  0  0  0  0  0  0  0  0  0
   -9.9460  -17.2861   11.3745 N   0  0  0  0  0  0  0  0  0  0  0  0
   -9.1140  -16.4308   10.6855 C   0  0  0  0  0  0  0  0  0  0  0  0
   -8.7399  -16.6252    9.5309 O   0  0  0  0  0  0  0  0  0  0  0  0
   -8.7046  -15.1889   11.4975 C   0  0  0  0  0  0  0  0  0  0  0  0
   -9.2632  -13.9832   10.8616 N   0  0  0  0  0  0  0  0  0  0  0  0
   -7.1751  -15.1000   11.6017 C   0  0  0  0  0  0  0  0  0  0  0  0
   -6.7097  -13.9459   12.4981 C   0  0  0  0  0  0  0  0  0  0  0  0
   -5.1880  -13.8079   12.4737 C   0  0  0  0  0  0  0  0  0  0  0  0
   -4.7699  -12.6702   13.2829 N   0  0  0  0  0  0  0  0  0  0  0  0
   -9.5457  -19.6963   11.0296 C   0  0  0  0  0  0  0  0  0  0  0  0
  1  2  1  0
  2  3  2  0
  2  4  1  0
  4  5  1  0
  5  6  1  0
  6  7  2  0
  6  8  1  0
  8  9  1  0
  8 18  1  0
  9 10  1  0
 10 11  2  0
 10 12  1  0
 12 13  1  0
 12 14  1  0
 14 15  1  0
 15 16  1  0
 16 17  1  0
M  END
>  <Gold.Gold.Protein.RotatedWaterAtoms>  (255) 


>  <Gold.Id.Protein>  (255) 


>  <Gold.PLP.Chemscore.CHOScore>  (255) 
0.0000

>  <Gold.PLP.Chemscore.Hbond>  (255) 
6.0399

>  <Gold.PLP.Chemscore.Internal.Correction>  (255) 
0.3297

>  <Gold.PLP.Chemscore.Metal>  (255) 
0.0000

>  <Gold.PLP.Fitness>  (255) 
51.8464

>  <Gold.PLP.PLP>  (255) 
-34.3756

>  <Gold.PLP.ligand.clash>  (255) 
0.0000

>  <Gold.PLP.ligand.torsion>  (255) 
0.4892

>  <Gold.PLP.part.buried>  (255) 
-3.2211

>  <Gold.PLP.part.hbond>  (255) 
-9.3310

>  <Gold.PLP.part.metal>  (255) 
0.0000

>  <Gold.PLP.part.nonpolar>  (255) 
-22.6151

>  <Gold.PLP.part.repulsive>  (255) 
0.1986

>  <Gold.Protein.RotatedAtoms>  (255) 


>  <Gold.Protein.RotatedTorsions>  (255) 


>  <Gold.Protein.RotatedWaterAtoms>  (255) 


>  <Gold.Version>  (255) 
5.3.0

>  <PLP.Chemscore.CHOScore>  (255) 


>  <PLP.Chemscore.Hbond>  (255) 


>  <PLP.Chemscore.Internal.Correction>  (255) 


>  <PLP.Chemscore.Metal>  (255) 


>  <PLP.Fitness>  (255) 


>  <PLP.PLP>  (255) 


>  <PLP.ligand.clash>  (255) 


>  <PLP.ligand.torsion>  (255) 


>  <PLP.part.buried>  (255) 


>  <PLP.part.hbond>  (255) 


>  <PLP.part.metal>  (255) 


>  <PLP.part.nonpolar>  (255) 


>  <PLP.part.repulsive>  (255) 


>  <Version>  (255) 


$$$$
255|Compound_162|Compounds_3D_F|sdf|36|dock5|1
     RDKit          3D

 18 17  0  0  0  0  0  0  0  0999 V2000
  -13.9022  -19.7248    8.1034 O   0  0  0  0  0  0  0  0  0  0  0  0
  -14.3334  -20.1756    9.2983 C   0  0  0  0  0  0  0  0  0  0  0  0
  -15.1214  -21.1050    9.3851 O   0  0  0  0  0  0  0  0  0  0  0  0
  -13.7311  -19.4142   10.4573 C   0  0  0  0  0  0  0  0  0  0  0  0
  -12.3605  -19.0531   10.1371 N   0  0  0  0  0  0  0  0  0  0  0  0
  -11.5250  -18.4956   11.0799 C   0  0  0  0  0  0  0  0  0  0  0  0
  -11.8655  -18.2650   12.2405 O   0  0  0  0  0  0  0  0  0  0  0  0
  -10.1043  -18.2002   10.5799 C   0  0  0  0  0  0  0  0  0  0  0  0
   -9.5551  -17.1895   11.4756 N   0  0  0  0  0  0  0  0  0  0  0  0
   -9.2029  -15.9217   11.0670 C   0  0  0  0  0  0  0  0  0  0  0  0
   -9.3113  -15.5228    9.9094 O   0  0  0  0  0  0  0  0  0  0  0  0
   -8.6708  -15.0365   12.2083 C   0  0  0  0  0  0  0  0  0  0  0  0
   -9.5693  -13.8836   12.3923 N   0  0  0  0  0  0  0  0  0  0  0  0
   -7.2379  -14.5765   11.9029 C   0  0  0  0  0  0  0  0  0  0  0  0
   -6.8066  -13.3787   12.7582 C   0  0  0  0  0  0  0  0  0  0  0  0
   -5.5031  -12.7722   12.2401 C   0  0  0  0  0  0  0  0  0  0  0  0
   -4.6597  -12.3580   13.3541 N   0  0  0  0  0  0  0  0  0  0  0  0
   -9.2681  -19.4734   10.5869 C   0  0  0  0  0  0  0  0  0  0  0  0
  1  2  1  0
  2  3  2  0
  2  4  1  0
  4  5  1  0
  5  6  1  0
  6  7  2  0
  6  8  1  0
  8  9  1  0
  8 18  1  0
  9 10  1  0
 10 11  2  0
 10 12  1  0
 12 13  1  0
 12 14  1  0
 14 15  1  0
 15 16  1  0
 16 17  1  0
M  END
>  <Gold.Gold.Protein.RotatedWaterAtoms>  (256) 


>  <Gold.Id.Protein>  (256) 


>  <Gold.PLP.Chemscore.CHOScore>  (256) 
0.0000

>  <Gold.PLP.Chemscore.Hbond>  (256) 
4.6848

>  <Gold.PLP.Chemscore.Internal.Correction>  (256) 
0.3297

>  <Gold.PLP.Chemscore.Metal>  (256) 
0.0000

>  <Gold.PLP.Fitness>  (256) 
50.3231

>  <Gold.PLP.PLP>  (256) 
-38.8422

>  <Gold.PLP.ligand.clash>  (256) 
0.0000

>  <Gold.PLP.ligand.torsion>  (256) 
1.4515

>  <Gold.PLP.part.buried>  (256) 
-3.9903

>  <Gold.PLP.part.hbond>  (256) 
-9.0975

>  <Gold.PLP.part.metal>  (256) 
0.0000

>  <Gold.PLP.part.nonpolar>  (256) 
-26.6512

>  <Gold.PLP.part.repulsive>  (256) 
0.6711

>  <Gold.Protein.RotatedAtoms>  (256) 


>  <Gold.Protein.RotatedTorsions>  (256) 


>  <Gold.Protein.RotatedWaterAtoms>  (256) 


>  <Gold.Version>  (256) 
5.3.0

>  <PLP.Chemscore.CHOScore>  (256) 


>  <PLP.Chemscore.Hbond>  (256) 


>  <PLP.Chemscore.Internal.Correction>  (256) 


>  <PLP.Chemscore.Metal>  (256) 


>  <PLP.Fitness>  (256) 


>  <PLP.PLP>  (256) 


>  <PLP.ligand.clash>  (256) 


>  <PLP.ligand.torsion>  (256) 


>  <PLP.part.buried>  (256) 


>  <PLP.part.hbond>  (256) 


>  <PLP.part.metal>  (256) 


>  <PLP.part.nonpolar>  (256) 


>  <PLP.part.repulsive>  (256) 


>  <Version>  (256) 


$$$$
256|Compound_162|Compounds_3D_F|sdf|36|dock6|1
     RDKit          3D

 18 17  0  0  0  0  0  0  0  0999 V2000
  -14.5670  -21.1402   12.3991 O   0  0  0  0  0  0  0  0  0  0  0  0
  -13.4486  -21.7454   12.8459 C   0  0  0  0  0  0  0  0  0  0  0  0
  -13.2457  -22.9351   12.6573 O   0  0  0  0  0  0  0  0  0  0  0  0
  -12.5237  -20.7935   13.5702 C   0  0  0  0  0  0  0  0  0  0  0  0
  -11.4757  -20.3560   12.6637 N   0  0  0  0  0  0  0  0  0  0  0  0
  -11.4303  -19.0641   12.1875 C   0  0  0  0  0  0  0  0  0  0  0  0
  -12.2543  -18.1989   12.4854 O   0  0  0  0  0  0  0  0  0  0  0  0
  -10.2429  -18.7655   11.2620 C   0  0  0  0  0  0  0  0  0  0  0  0
   -9.5782  -17.5903   11.8121 N   0  0  0  0  0  0  0  0  0  0  0  0
   -8.9799  -16.6219   11.0359 C   0  0  0  0  0  0  0  0  0  0  0  0
   -8.9429  -16.6579    9.8079 O   0  0  0  0  0  0  0  0  0  0  0  0
   -8.3698  -15.4709   11.8559 C   0  0  0  0  0  0  0  0  0  0  0  0
   -9.4509  -14.6898   12.4815 N   0  0  0  0  0  0  0  0  0  0  0  0
   -7.4945  -14.5828   10.9594 C   0  0  0  0  0  0  0  0  0  0  0  0
   -6.7953  -13.4625   11.7393 C   0  0  0  0  0  0  0  0  0  0  0  0
   -5.8488  -14.0333   12.7947 C   0  0  0  0  0  0  0  0  0  0  0  0
   -4.6424  -14.5538   12.1641 N   0  0  0  0  0  0  0  0  0  0  0  0
   -9.3068  -19.9658   11.2023 C   0  0  0  0  0  0  0  0  0  0  0  0
  1  2  1  0
  2  3  2  0
  2  4  1  0
  4  5  1  0
  5  6  1  0
  6  7  2  0
  6  8  1  0
  8  9  1  0
  8 18  1  0
  9 10  1  0
 10 11  2  0
 10 12  1  0
 12 13  1  0
 12 14  1  0
 14 15  1  0
 15 16  1  0
 16 17  1  0
M  END
>  <Gold.Gold.Protein.RotatedWaterAtoms>  (257) 


>  <Gold.Id.Protein>  (257) 


>  <Gold.PLP.Chemscore.CHOScore>  (257) 
0.0000

>  <Gold.PLP.Chemscore.Hbond>  (257) 
5.3760

>  <Gold.PLP.Chemscore.Internal.Correction>  (257) 
0.3297

>  <Gold.PLP.Chemscore.Metal>  (257) 
0.0000

>  <Gold.PLP.Fitness>  (257) 
47.1230

>  <Gold.PLP.PLP>  (257) 
-36.5283

>  <Gold.PLP.ligand.clash>  (257) 
3.7723

>  <Gold.PLP.ligand.torsion>  (257) 
1.0454

>  <Gold.PLP.part.buried>  (257) 
-7.6135

>  <Gold.PLP.part.hbond>  (257) 
-6.9975

>  <Gold.PLP.part.metal>  (257) 
0.0000

>  <Gold.PLP.part.nonpolar>  (257) 
-23.8301

>  <Gold.PLP.part.repulsive>  (257) 
0.3065

>  <Gold.Protein.RotatedAtoms>  (257) 


>  <Gold.Protein.RotatedTorsions>  (257) 


>  <Gold.Protein.RotatedWaterAtoms>  (257) 


>  <Gold.Version>  (257) 
5.3.0

>  <PLP.Chemscore.CHOScore>  (257) 


>  <PLP.Chemscore.Hbond>  (257) 


>  <PLP.Chemscore.Internal.Correction>  (257) 


>  <PLP.Chemscore.Metal>  (257) 


>  <PLP.Fitness>  (257) 


>  <PLP.PLP>  (257) 


>  <PLP.ligand.clash>  (257) 


>  <PLP.ligand.torsion>  (257) 


>  <PLP.part.buried>  (257) 


>  <PLP.part.hbond>  (257) 


>  <PLP.part.metal>  (257) 


>  <PLP.part.nonpolar>  (257) 


>  <PLP.part.repulsive>  (257) 


>  <Version>  (257) 


$$$$
257|Compound_162|Compounds_3D_F|sdf|36|dock7|1
     RDKit          3D

 18 17  0  0  0  0  0  0  0  0999 V2000
  -14.7589  -21.9585   13.0670 O   0  0  0  0  0  0  0  0  0  0  0  0
  -13.4436  -21.7946   12.8219 C   0  0  0  0  0  0  0  0  0  0  0  0
  -12.8038  -22.6179   12.1855 O   0  0  0  0  0  0  0  0  0  0  0  0
  -12.8997  -20.5116   13.4084 C   0  0  0  0  0  0  0  0  0  0  0  0
  -12.6183  -19.5723   12.3361 N   0  0  0  0  0  0  0  0  0  0  0  0
  -11.3515  -19.4388   11.8114 C   0  0  0  0  0  0  0  0  0  0  0  0
  -10.3811  -20.0895   12.2002 O   0  0  0  0  0  0  0  0  0  0  0  0
  -11.2373  -18.4211   10.6681 C   0  0  0  0  0  0  0  0  0  0  0  0
  -10.4835  -17.2911   11.1975 N   0  0  0  0  0  0  0  0  0  0  0  0
   -9.1241  -17.3211   11.4204 C   0  0  0  0  0  0  0  0  0  0  0  0
   -8.4179  -18.3029   11.2012 O   0  0  0  0  0  0  0  0  0  0  0  0
   -8.5628  -15.9930   11.9595 C   0  0  0  0  0  0  0  0  0  0  0  0
   -9.6756  -15.1386   12.4087 N   0  0  0  0  0  0  0  0  0  0  0  0
   -7.7275  -15.2895   10.8800 C   0  0  0  0  0  0  0  0  0  0  0  0
   -7.1067  -13.9773   11.3747 C   0  0  0  0  0  0  0  0  0  0  0  0
   -6.1131  -14.2302   12.5079 C   0  0  0  0  0  0  0  0  0  0  0  0
   -4.8921  -14.8307   11.9859 N   0  0  0  0  0  0  0  0  0  0  0  0
  -10.5399  -19.0516    9.4695 C   0  0  0  0  0  0  0  0  0  0  0  0
  1  2  1  0
  2  3  2  0
  2  4  1  0
  4  5  1  0
  5  6  1  0
  6  7  2  0
  6  8  1  0
  8  9  1  0
  8 18  1  0
  9 10  1  0
 10 11  2  0
 10 12  1  0
 12 13  1  0
 12 14  1  0
 14 15  1  0
 15 16  1  0
 16 17  1  0
M  END
>  <Gold.Gold.Protein.RotatedWaterAtoms>  (258) 


>  <Gold.Id.Protein>  (258) 


>  <Gold.PLP.Chemscore.CHOScore>  (258) 
0.0000

>  <Gold.PLP.Chemscore.Hbond>  (258) 
5.6960

>  <Gold.PLP.Chemscore.Internal.Correction>  (258) 
0.2344

>  <Gold.PLP.Chemscore.Metal>  (258) 
0.0000

>  <Gold.PLP.Fitness>  (258) 
50.9667

>  <Gold.PLP.PLP>  (258) 
-35.5691

>  <Gold.PLP.ligand.clash>  (258) 
0.0000

>  <Gold.PLP.ligand.torsion>  (258) 
0.9624

>  <Gold.PLP.part.buried>  (258) 
-8.5279

>  <Gold.PLP.part.hbond>  (258) 
-6.4455

>  <Gold.PLP.part.metal>  (258) 
0.0000

>  <Gold.PLP.part.nonpolar>  (258) 
-21.4411

>  <Gold.PLP.part.repulsive>  (258) 
0.1541

>  <Gold.Protein.RotatedAtoms>  (258) 


>  <Gold.Protein.RotatedTorsions>  (258) 


>  <Gold.Protein.RotatedWaterAtoms>  (258) 


>  <Gold.Version>  (258) 
5.3.0

>  <PLP.Chemscore.CHOScore>  (258) 


>  <PLP.Chemscore.Hbond>  (258) 


>  <PLP.Chemscore.Internal.Correction>  (258) 


>  <PLP.Chemscore.Metal>  (258) 


>  <PLP.Fitness>  (258) 


>  <PLP.PLP>  (258) 


>  <PLP.ligand.clash>  (258) 


>  <PLP.ligand.torsion>  (258) 


>  <PLP.part.buried>  (258) 


>  <PLP.part.hbond>  (258) 


>  <PLP.part.metal>  (258) 


>  <PLP.part.nonpolar>  (258) 


>  <PLP.part.repulsive>  (258) 


>  <Version>  (258) 


$$$$
258|Compound_162|Compounds_3D_F|sdf|36|dock8|1
     RDKit          3D

 18 17  0  0  0  0  0  0  0  0999 V2000
  -14.1998  -19.9349    8.1031 O   0  0  0  0  0  0  0  0  0  0  0  0
  -14.1808  -19.2721    9.2767 C   0  0  0  0  0  0  0  0  0  0  0  0
  -14.7450  -19.7095   10.2678 O   0  0  0  0  0  0  0  0  0  0  0  0
  -13.3978  -17.9809    9.2011 C   0  0  0  0  0  0  0  0  0  0  0  0
  -12.2843  -18.0369   10.1330 N   0  0  0  0  0  0  0  0  0  0  0  0
  -11.1633  -18.7930    9.8690 C   0  0  0  0  0  0  0  0  0  0  0  0
  -11.0200  -19.4647    8.8470 O   0  0  0  0  0  0  0  0  0  0  0  0
  -10.0732  -18.7176   10.9468 C   0  0  0  0  0  0  0  0  0  0  0  0
   -9.8115  -17.3006   11.1683 N   0  0  0  0  0  0  0  0  0  0  0  0
   -8.5472  -16.7766   11.3282 C   0  0  0  0  0  0  0  0  0  0  0  0
   -7.5206  -17.4520   11.3060 O   0  0  0  0  0  0  0  0  0  0  0  0
   -8.5377  -15.2497   11.5231 C   0  0  0  0  0  0  0  0  0  0  0  0
   -9.0981  -14.6005   10.3254 N   0  0  0  0  0  0  0  0  0  0  0  0
   -7.1104  -14.7565   11.8018 C   0  0  0  0  0  0  0  0  0  0  0  0
   -7.0529  -13.2544   12.1062 C   0  0  0  0  0  0  0  0  0  0  0  0
   -5.6387  -12.8243   12.4940 C   0  0  0  0  0  0  0  0  0  0  0  0
   -5.6530  -11.4740   13.0425 N   0  0  0  0  0  0  0  0  0  0  0  0
  -10.5427  -19.4095   12.2200 C   0  0  0  0  0  0  0  0  0  0  0  0
  1  2  1  0
  2  3  2  0
  2  4  1  0
  4  5  1  0
  5  6  1  0
  6  7  2  0
  6  8  1  0
  8  9  1  0
  8 18  1  0
  9 10  1  0
 10 11  2  0
 10 12  1  0
 12 13  1  0
 12 14  1  0
 14 15  1  0
 15 16  1  0
 16 17  1  0
M  END
>  <Gold.Gold.Protein.RotatedWaterAtoms>  (259) 


>  <Gold.Id.Protein>  (259) 


>  <Gold.PLP.Chemscore.CHOScore>  (259) 
0.0000

>  <Gold.PLP.Chemscore.Hbond>  (259) 
2.0147

>  <Gold.PLP.Chemscore.Internal.Correction>  (259) 
0.2344

>  <Gold.PLP.Chemscore.Metal>  (259) 
0.0000

>  <Gold.PLP.Fitness>  (259) 
50.9438

>  <Gold.PLP.PLP>  (259) 
-45.7418

>  <Gold.PLP.ligand.clash>  (259) 
0.0000

>  <Gold.PLP.ligand.torsion>  (259) 
0.5384

>  <Gold.PLP.part.buried>  (259) 
-7.2881

>  <Gold.PLP.part.hbond>  (259) 
-9.0000

>  <Gold.PLP.part.metal>  (259) 
0.0000

>  <Gold.PLP.part.nonpolar>  (259) 
-29.8451

>  <Gold.PLP.part.repulsive>  (259) 
0.2529

>  <Gold.Protein.RotatedAtoms>  (259) 


>  <Gold.Protein.RotatedTorsions>  (259) 


>  <Gold.Protein.RotatedWaterAtoms>  (259) 


>  <Gold.Version>  (259) 
5.3.0

>  <PLP.Chemscore.CHOScore>  (259) 


>  <PLP.Chemscore.Hbond>  (259) 


>  <PLP.Chemscore.Internal.Correction>  (259) 


>  <PLP.Chemscore.Metal>  (259) 


>  <PLP.Fitness>  (259) 


>  <PLP.PLP>  (259) 


>  <PLP.ligand.clash>  (259) 


>  <PLP.ligand.torsion>  (259) 


>  <PLP.part.buried>  (259) 


>  <PLP.part.hbond>  (259) 


>  <PLP.part.metal>  (259) 


>  <PLP.part.nonpolar>  (259) 


>  <PLP.part.repulsive>  (259) 


>  <Version>  (259) 


$$$$
259|Compound_162|Compounds_3D_F|sdf|36|dock9|1
     RDKit          3D

 18 17  0  0  0  0  0  0  0  0999 V2000
  -14.4025  -21.0827   13.3284 O   0  0  0  0  0  0  0  0  0  0  0  0
  -13.2908  -20.4699   12.8750 C   0  0  0  0  0  0  0  0  0  0  0  0
  -12.3008  -20.3378   13.5784 O   0  0  0  0  0  0  0  0  0  0  0  0
  -13.4300  -19.9991   11.4450 C   0  0  0  0  0  0  0  0  0  0  0  0
  -12.1413  -19.5315   10.9635 N   0  0  0  0  0  0  0  0  0  0  0  0
  -11.5105  -18.4481   11.5346 C   0  0  0  0  0  0  0  0  0  0  0  0
  -11.9777  -17.8060   12.4757 O   0  0  0  0  0  0  0  0  0  0  0  0
  -10.1458  -18.1065   10.9209 C   0  0  0  0  0  0  0  0  0  0  0  0
   -9.6344  -16.9629   11.6665 N   0  0  0  0  0  0  0  0  0  0  0  0
   -9.1152  -15.8355   11.0682 C   0  0  0  0  0  0  0  0  0  0  0  0
   -9.0272  -15.6876    9.8512 O   0  0  0  0  0  0  0  0  0  0  0  0
   -8.6657  -14.7606   12.0742 C   0  0  0  0  0  0  0  0  0  0  0  0
   -9.8429  -14.2368   12.7884 N   0  0  0  0  0  0  0  0  0  0  0  0
   -7.9126  -13.6347   11.3508 C   0  0  0  0  0  0  0  0  0  0  0  0
   -7.0649  -12.7831   12.3040 C   0  0  0  0  0  0  0  0  0  0  0  0
   -5.7129  -13.4411   12.5765 C   0  0  0  0  0  0  0  0  0  0  0  0
   -4.7703  -12.4618   13.1024 N   0  0  0  0  0  0  0  0  0  0  0  0
   -9.2106  -19.3051   11.0163 C   0  0  0  0  0  0  0  0  0  0  0  0
  1  2  1  0
  2  3  2  0
  2  4  1  0
  4  5  1  0
  5  6  1  0
  6  7  2  0
  6  8  1  0
  8  9  1  0
  8 18  1  0
  9 10  1  0
 10 11  2  0
 10 12  1  0
 12 13  1  0
 12 14  1  0
 14 15  1  0
 15 16  1  0
 16 17  1  0
M  END
>  <Gold.Gold.Protein.RotatedWaterAtoms>  (260) 


>  <Gold.Id.Protein>  (260) 


>  <Gold.PLP.Chemscore.CHOScore>  (260) 
0.0000

>  <Gold.PLP.Chemscore.Hbond>  (260) 
4.0000

>  <Gold.PLP.Chemscore.Internal.Correction>  (260) 
0.2344

>  <Gold.PLP.Chemscore.Metal>  (260) 
0.0000

>  <Gold.PLP.Fitness>  (260) 
52.5553

>  <Gold.PLP.PLP>  (260) 
-41.6610

>  <Gold.PLP.ligand.clash>  (260) 
0.0000

>  <Gold.PLP.ligand.torsion>  (260) 
0.6701

>  <Gold.PLP.part.buried>  (260) 
-5.5431

>  <Gold.PLP.part.hbond>  (260) 
-11.0289

>  <Gold.PLP.part.metal>  (260) 
0.0000

>  <Gold.PLP.part.nonpolar>  (260) 
-25.7200

>  <Gold.PLP.part.repulsive>  (260) 
0.3235

>  <Gold.Protein.RotatedAtoms>  (260) 


>  <Gold.Protein.RotatedTorsions>  (260) 


>  <Gold.Protein.RotatedWaterAtoms>  (260) 


>  <Gold.Version>  (260) 
5.3.0

>  <PLP.Chemscore.CHOScore>  (260) 


>  <PLP.Chemscore.Hbond>  (260) 


>  <PLP.Chemscore.Internal.Correction>  (260) 


>  <PLP.Chemscore.Metal>  (260) 


>  <PLP.Fitness>  (260) 


>  <PLP.PLP>  (260) 


>  <PLP.ligand.clash>  (260) 


>  <PLP.ligand.torsion>  (260) 


>  <PLP.part.buried>  (260) 


>  <PLP.part.hbond>  (260) 


>  <PLP.part.metal>  (260) 


>  <PLP.part.nonpolar>  (260) 


>  <PLP.part.repulsive>  (260) 


>  <Version>  (260) 


$$$$
260|Compound_163|Compounds_3D_F|sdf|37|dock1|1
     RDKit          3D

 15 14  0  0  0  0  0  0  0  0999 V2000
  -11.7181  -19.9904   13.3851 O   0  0  0  0  0  0  0  0  0  0  0  0
  -11.0783  -19.9356   12.2025 C   0  0  0  0  0  0  0  0  0  0  0  0
  -10.5217  -20.9151   11.7288 O   0  0  0  0  0  0  0  0  0  0  0  0
  -11.0677  -18.5516   11.5830 C   0  0  0  0  0  0  0  0  0  0  0  0
  -11.7308  -17.6144   12.4426 O   0  0  0  0  0  0  0  0  0  0  0  0
   -9.6384  -18.0674   11.3558 C   0  0  0  0  0  0  0  0  0  0  0  0
   -9.5420  -16.6390   11.5970 N   0  0  0  0  0  0  0  0  0  0  0  0
   -8.3441  -15.9913   11.8127 C   0  0  0  0  0  0  0  0  0  0  0  0
   -7.2546  -16.5588   11.8416 O   0  0  0  0  0  0  0  0  0  0  0  0
   -8.5123  -14.4851   12.0723 C   0  0  0  0  0  0  0  0  0  0  0  0
   -9.7699  -14.0308   11.4655 N   0  0  0  0  0  0  0  0  0  0  0  0
   -7.2804  -13.7443   11.5307 C   0  0  0  0  0  0  0  0  0  0  0  0
   -6.1511  -13.6374   12.5588 C   0  0  0  0  0  0  0  0  0  0  0  0
   -5.2863  -12.4046   12.2958 C   0  0  0  0  0  0  0  0  0  0  0  0
   -4.3632  -12.1990   13.4022 N   0  0  0  0  0  0  0  0  0  0  0  0
  1  2  1  0
  2  3  2  0
  2  4  1  0
  4  5  1  0
  4  6  1  0
  6  7  1  0
  7  8  1  0
  8  9  2  0
  8 10  1  0
 10 11  1  0
 10 12  1  0
 12 13  1  0
 13 14  1  0
 14 15  1  0
M  END
>  <Gold.Gold.Protein.RotatedWaterAtoms>  (261) 


>  <Gold.Id.Protein>  (261) 


>  <Gold.PLP.Chemscore.CHOScore>  (261) 
0.0000

>  <Gold.PLP.Chemscore.Hbond>  (261) 
5.6416

>  <Gold.PLP.Chemscore.Internal.Correction>  (261) 
0.2034

>  <Gold.PLP.Chemscore.Metal>  (261) 
0.0000

>  <Gold.PLP.Fitness>  (261) 
52.6029

>  <Gold.PLP.PLP>  (261) 
-39.2473

>  <Gold.PLP.ligand.clash>  (261) 
0.0000

>  <Gold.PLP.ligand.torsion>  (261) 
1.8863

>  <Gold.PLP.part.buried>  (261) 
-8.7527

>  <Gold.PLP.part.hbond>  (261) 
-7.3816

>  <Gold.PLP.part.metal>  (261) 
0.0000

>  <Gold.PLP.part.nonpolar>  (261) 
-23.3175

>  <Gold.PLP.part.repulsive>  (261) 
0.1352

>  <Gold.Protein.RotatedAtoms>  (261) 


>  <Gold.Protein.RotatedTorsions>  (261) 


>  <Gold.Protein.RotatedWaterAtoms>  (261) 


>  <Gold.Version>  (261) 
5.3.0

>  <PLP.Chemscore.CHOScore>  (261) 


>  <PLP.Chemscore.Hbond>  (261) 


>  <PLP.Chemscore.Internal.Correction>  (261) 


>  <PLP.Chemscore.Metal>  (261) 


>  <PLP.Fitness>  (261) 


>  <PLP.PLP>  (261) 


>  <PLP.ligand.clash>  (261) 


>  <PLP.ligand.torsion>  (261) 


>  <PLP.part.buried>  (261) 


>  <PLP.part.hbond>  (261) 


>  <PLP.part.metal>  (261) 


>  <PLP.part.nonpolar>  (261) 


>  <PLP.part.repulsive>  (261) 


>  <Version>  (261) 


$$$$
261|Compound_163|Compounds_3D_F|sdf|37|dock2|1
     RDKit          3D

 15 14  0  0  0  0  0  0  0  0999 V2000
  -13.0265  -19.7461   11.7759 O   0  0  0  0  0  0  0  0  0  0  0  0
  -12.2708  -18.6337   11.7271 C   0  0  0  0  0  0  0  0  0  0  0  0
  -12.4541  -17.6999   12.4940 O   0  0  0  0  0  0  0  0  0  0  0  0
  -11.2498  -18.6437   10.6060 C   0  0  0  0  0  0  0  0  0  0  0  0
  -11.5791  -17.6541    9.6215 O   0  0  0  0  0  0  0  0  0  0  0  0
   -9.8518  -18.3440   11.1398 C   0  0  0  0  0  0  0  0  0  0  0  0
   -9.6864  -16.9180   11.3572 N   0  0  0  0  0  0  0  0  0  0  0  0
   -8.4732  -16.3392   11.6639 C   0  0  0  0  0  0  0  0  0  0  0  0
   -7.4284  -16.9713   11.8015 O   0  0  0  0  0  0  0  0  0  0  0  0
   -8.5675  -14.8190   11.8746 C   0  0  0  0  0  0  0  0  0  0  0  0
   -9.1888  -14.2082   10.6927 N   0  0  0  0  0  0  0  0  0  0  0  0
   -7.1645  -14.2677   12.1700 C   0  0  0  0  0  0  0  0  0  0  0  0
   -7.1698  -12.7718   12.4958 C   0  0  0  0  0  0  0  0  0  0  0  0
   -5.7604  -12.1868   12.4045 C   0  0  0  0  0  0  0  0  0  0  0  0
   -4.8675  -12.8966   13.3085 N   0  0  0  0  0  0  0  0  0  0  0  0
  1  2  1  0
  2  3  2  0
  2  4  1  0
  4  5  1  0
  4  6  1  0
  6  7  1  0
  7  8  1  0
  8  9  2  0
  8 10  1  0
 10 11  1  0
 10 12  1  0
 12 13  1  0
 13 14  1  0
 14 15  1  0
M  END
>  <Gold.Gold.Protein.RotatedWaterAtoms>  (262) 


>  <Gold.Id.Protein>  (262) 


>  <Gold.PLP.Chemscore.CHOScore>  (262) 
0.0000

>  <Gold.PLP.Chemscore.Hbond>  (262) 
5.2798

>  <Gold.PLP.Chemscore.Internal.Correction>  (262) 
0.2034

>  <Gold.PLP.Chemscore.Metal>  (262) 
0.0000

>  <Gold.PLP.Fitness>  (262) 
52.8940

>  <Gold.PLP.PLP>  (262) 
-37.6415

>  <Gold.PLP.ligand.clash>  (262) 
0.0000

>  <Gold.PLP.ligand.torsion>  (262) 
0.3951

>  <Gold.PLP.part.buried>  (262) 
-7.7377

>  <Gold.PLP.part.hbond>  (262) 
-8.0945

>  <Gold.PLP.part.metal>  (262) 
0.0000

>  <Gold.PLP.part.nonpolar>  (262) 
-22.0649

>  <Gold.PLP.part.repulsive>  (262) 
0.1936

>  <Gold.Protein.RotatedAtoms>  (262) 


>  <Gold.Protein.RotatedTorsions>  (262) 


>  <Gold.Protein.RotatedWaterAtoms>  (262) 


>  <Gold.Version>  (262) 
5.3.0

>  <PLP.Chemscore.CHOScore>  (262) 


>  <PLP.Chemscore.Hbond>  (262) 


>  <PLP.Chemscore.Internal.Correction>  (262) 


>  <PLP.Chemscore.Metal>  (262) 


>  <PLP.Fitness>  (262) 


>  <PLP.PLP>  (262) 


>  <PLP.ligand.clash>  (262) 


>  <PLP.ligand.torsion>  (262) 


>  <PLP.part.buried>  (262) 


>  <PLP.part.hbond>  (262) 


>  <PLP.part.metal>  (262) 


>  <PLP.part.nonpolar>  (262) 


>  <PLP.part.repulsive>  (262) 


>  <Version>  (262) 


$$$$
262|Compound_163|Compounds_3D_F|sdf|37|dock3|1
     RDKit          3D

 15 14  0  0  0  0  0  0  0  0999 V2000
  -11.4875  -20.0051   13.2734 O   0  0  0  0  0  0  0  0  0  0  0  0
  -10.9984  -19.8916   12.0249 C   0  0  0  0  0  0  0  0  0  0  0  0
  -10.4202  -20.8180   11.4762 O   0  0  0  0  0  0  0  0  0  0  0  0
  -11.1785  -18.5097   11.4271 C   0  0  0  0  0  0  0  0  0  0  0  0
  -11.6749  -17.5980   12.4168 O   0  0  0  0  0  0  0  0  0  0  0  0
   -9.8538  -17.9688   10.8967 C   0  0  0  0  0  0  0  0  0  0  0  0
   -9.6632  -16.5920   11.3163 N   0  0  0  0  0  0  0  0  0  0  0  0
   -8.4357  -16.0781   11.6768 C   0  0  0  0  0  0  0  0  0  0  0  0
   -7.3976  -16.7353   11.6970 O   0  0  0  0  0  0  0  0  0  0  0  0
   -8.5036  -14.6041   12.1093 C   0  0  0  0  0  0  0  0  0  0  0  0
   -9.7288  -14.0013   11.5695 N   0  0  0  0  0  0  0  0  0  0  0  0
   -7.2258  -13.8882   11.6460 C   0  0  0  0  0  0  0  0  0  0  0  0
   -6.4817  -13.1985   12.7924 C   0  0  0  0  0  0  0  0  0  0  0  0
   -5.2886  -12.3992   12.2681 C   0  0  0  0  0  0  0  0  0  0  0  0
   -4.3166  -12.1998   13.3329 N   0  0  0  0  0  0  0  0  0  0  0  0
  1  2  1  0
  2  3  2  0
  2  4  1  0
  4  5  1  0
  4  6  1  0
  6  7  1  0
  7  8  1  0
  8  9  2  0
  8 10  1  0
 10 11  1  0
 10 12  1  0
 12 13  1  0
 13 14  1  0
 14 15  1  0
M  END
>  <Gold.Gold.Protein.RotatedWaterAtoms>  (263) 


>  <Gold.Id.Protein>  (263) 


>  <Gold.PLP.Chemscore.CHOScore>  (263) 
0.0000

>  <Gold.PLP.Chemscore.Hbond>  (263) 
5.6960

>  <Gold.PLP.Chemscore.Internal.Correction>  (263) 
0.1845

>  <Gold.PLP.Chemscore.Metal>  (263) 
0.0000

>  <Gold.PLP.Fitness>  (263) 
49.9158

>  <Gold.PLP.PLP>  (263) 
-37.5287

>  <Gold.PLP.ligand.clash>  (263) 
0.0000

>  <Gold.PLP.ligand.torsion>  (263) 
2.4427

>  <Gold.PLP.part.buried>  (263) 
-8.4507

>  <Gold.PLP.part.hbond>  (263) 
-7.6824

>  <Gold.PLP.part.metal>  (263) 
0.0000

>  <Gold.PLP.part.nonpolar>  (263) 
-22.1860

>  <Gold.PLP.part.repulsive>  (263) 
0.0991

>  <Gold.Protein.RotatedAtoms>  (263) 


>  <Gold.Protein.RotatedTorsions>  (263) 


>  <Gold.Protein.RotatedWaterAtoms>  (263) 


>  <Gold.Version>  (263) 
5.3.0

>  <PLP.Chemscore.CHOScore>  (263) 


>  <PLP.Chemscore.Hbond>  (263) 


>  <PLP.Chemscore.Internal.Correction>  (263) 


>  <PLP.Chemscore.Metal>  (263) 


>  <PLP.Fitness>  (263) 


>  <PLP.PLP>  (263) 


>  <PLP.ligand.clash>  (263) 


>  <PLP.ligand.torsion>  (263) 


>  <PLP.part.buried>  (263) 


>  <PLP.part.hbond>  (263) 


>  <PLP.part.metal>  (263) 


>  <PLP.part.nonpolar>  (263) 


>  <PLP.part.repulsive>  (263) 


>  <Version>  (263) 


$$$$
263|Compound_163|Compounds_3D_F|sdf|37|dock4|1
     RDKit          3D

 15 14  0  0  0  0  0  0  0  0999 V2000
  -11.5133  -20.0740   13.4009 O   0  0  0  0  0  0  0  0  0  0  0  0
  -11.1287  -20.0879   12.1114 C   0  0  0  0  0  0  0  0  0  0  0  0
  -10.7239  -21.1083   11.5741 O   0  0  0  0  0  0  0  0  0  0  0  0
  -11.1869  -18.7260   11.4472 C   0  0  0  0  0  0  0  0  0  0  0  0
  -11.6682  -17.7399   12.3708 O   0  0  0  0  0  0  0  0  0  0  0  0
   -9.8048  -18.2967   10.9629 C   0  0  0  0  0  0  0  0  0  0  0  0
   -9.6586  -16.8554   11.0581 N   0  0  0  0  0  0  0  0  0  0  0  0
   -8.5692  -16.2465   11.6442 C   0  0  0  0  0  0  0  0  0  0  0  0
   -7.6353  -16.8597   12.1558 O   0  0  0  0  0  0  0  0  0  0  0  0
   -8.6656  -14.7119   11.6452 C   0  0  0  0  0  0  0  0  0  0  0  0
   -8.7580  -14.2357   10.2593 N   0  0  0  0  0  0  0  0  0  0  0  0
   -7.4582  -14.1361   12.4005 C   0  0  0  0  0  0  0  0  0  0  0  0
   -6.9912  -12.7910   11.8380 C   0  0  0  0  0  0  0  0  0  0  0  0
   -5.5605  -12.4807   12.2781 C   0  0  0  0  0  0  0  0  0  0  0  0
   -5.5640  -11.4075   13.2613 N   0  0  0  0  0  0  0  0  0  0  0  0
  1  2  1  0
  2  3  2  0
  2  4  1  0
  4  5  1  0
  4  6  1  0
  6  7  1  0
  7  8  1  0
  8  9  2  0
  8 10  1  0
 10 11  1  0
 10 12  1  0
 12 13  1  0
 13 14  1  0
 14 15  1  0
M  END
>  <Gold.Gold.Protein.RotatedWaterAtoms>  (264) 


>  <Gold.Id.Protein>  (264) 


>  <Gold.PLP.Chemscore.CHOScore>  (264) 
0.0000

>  <Gold.PLP.Chemscore.Hbond>  (264) 
5.0950

>  <Gold.PLP.Chemscore.Internal.Correction>  (264) 
0.1845

>  <Gold.PLP.Chemscore.Metal>  (264) 
0.0000

>  <Gold.PLP.Fitness>  (264) 
46.9068

>  <Gold.PLP.PLP>  (264) 
-34.2231

>  <Gold.PLP.ligand.clash>  (264) 
0.0000

>  <Gold.PLP.ligand.torsion>  (264) 
1.3929

>  <Gold.PLP.part.buried>  (264) 
-5.6101

>  <Gold.PLP.part.hbond>  (264) 
-7.9175

>  <Gold.PLP.part.metal>  (264) 
0.0000

>  <Gold.PLP.part.nonpolar>  (264) 
-22.2170

>  <Gold.PLP.part.repulsive>  (264) 
0.0874

>  <Gold.Protein.RotatedAtoms>  (264) 


>  <Gold.Protein.RotatedTorsions>  (264) 


>  <Gold.Protein.RotatedWaterAtoms>  (264) 


>  <Gold.Version>  (264) 
5.3.0

>  <PLP.Chemscore.CHOScore>  (264) 


>  <PLP.Chemscore.Hbond>  (264) 


>  <PLP.Chemscore.Internal.Correction>  (264) 


>  <PLP.Chemscore.Metal>  (264) 


>  <PLP.Fitness>  (264) 


>  <PLP.PLP>  (264) 


>  <PLP.ligand.clash>  (264) 


>  <PLP.ligand.torsion>  (264) 


>  <PLP.part.buried>  (264) 


>  <PLP.part.hbond>  (264) 


>  <PLP.part.metal>  (264) 


>  <PLP.part.nonpolar>  (264) 


>  <PLP.part.repulsive>  (264) 


>  <Version>  (264) 


$$$$
264|Compound_163|Compounds_3D_F|sdf|37|dock5|1
     RDKit          3D

 15 14  0  0  0  0  0  0  0  0999 V2000
  -11.8935  -20.7476   11.7429 O   0  0  0  0  0  0  0  0  0  0  0  0
  -11.1996  -19.6018   11.8718 C   0  0  0  0  0  0  0  0  0  0  0  0
  -11.4878  -18.7696   12.7191 O   0  0  0  0  0  0  0  0  0  0  0  0
  -10.1041  -19.4374   10.8362 C   0  0  0  0  0  0  0  0  0  0  0  0
  -10.1364  -20.5219    9.8983 O   0  0  0  0  0  0  0  0  0  0  0  0
  -10.2743  -18.1308   10.0662 C   0  0  0  0  0  0  0  0  0  0  0  0
   -9.7598  -17.0150   10.8397 N   0  0  0  0  0  0  0  0  0  0  0  0
   -8.4246  -16.8663   11.1497 C   0  0  0  0  0  0  0  0  0  0  0  0
   -7.5523  -17.6671   10.8215 O   0  0  0  0  0  0  0  0  0  0  0  0
   -8.1399  -15.6187   12.0023 C   0  0  0  0  0  0  0  0  0  0  0  0
   -9.4146  -15.0116   12.4055 N   0  0  0  0  0  0  0  0  0  0  0  0
   -7.2434  -14.6613   11.2028 C   0  0  0  0  0  0  0  0  0  0  0  0
   -6.7888  -13.4497   12.0208 C   0  0  0  0  0  0  0  0  0  0  0  0
   -5.5043  -13.7591   12.7897 C   0  0  0  0  0  0  0  0  0  0  0  0
   -4.8053  -12.5230   13.1087 N   0  0  0  0  0  0  0  0  0  0  0  0
  1  2  1  0
  2  3  2  0
  2  4  1  0
  4  5  1  0
  4  6  1  0
  6  7  1  0
  7  8  1  0
  8  9  2  0
  8 10  1  0
 10 11  1  0
 10 12  1  0
 12 13  1  0
 13 14  1  0
 14 15  1  0
M  END
>  <Gold.Gold.Protein.RotatedWaterAtoms>  (265) 


>  <Gold.Id.Protein>  (265) 


>  <Gold.PLP.Chemscore.CHOScore>  (265) 
0.0000

>  <Gold.PLP.Chemscore.Hbond>  (265) 
5.0000

>  <Gold.PLP.Chemscore.Internal.Correction>  (265) 
0.1297

>  <Gold.PLP.Chemscore.Metal>  (265) 
0.0000

>  <Gold.PLP.Fitness>  (265) 
48.0883

>  <Gold.PLP.PLP>  (265) 
-34.3085

>  <Gold.PLP.ligand.clash>  (265) 
0.0000

>  <Gold.PLP.ligand.torsion>  (265) 
0.6749

>  <Gold.PLP.part.buried>  (265) 
-7.8579

>  <Gold.PLP.part.hbond>  (265) 
-6.8995

>  <Gold.PLP.part.metal>  (265) 
0.0000

>  <Gold.PLP.part.nonpolar>  (265) 
-20.0963

>  <Gold.PLP.part.repulsive>  (265) 
0.0322

>  <Gold.Protein.RotatedAtoms>  (265) 


>  <Gold.Protein.RotatedTorsions>  (265) 


>  <Gold.Protein.RotatedWaterAtoms>  (265) 


>  <Gold.Version>  (265) 
5.3.0

>  <PLP.Chemscore.CHOScore>  (265) 


>  <PLP.Chemscore.Hbond>  (265) 


>  <PLP.Chemscore.Internal.Correction>  (265) 


>  <PLP.Chemscore.Metal>  (265) 


>  <PLP.Fitness>  (265) 


>  <PLP.PLP>  (265) 


>  <PLP.ligand.clash>  (265) 


>  <PLP.ligand.torsion>  (265) 


>  <PLP.part.buried>  (265) 


>  <PLP.part.hbond>  (265) 


>  <PLP.part.metal>  (265) 


>  <PLP.part.nonpolar>  (265) 


>  <PLP.part.repulsive>  (265) 


>  <Version>  (265) 


$$$$
265|Compound_163|Compounds_3D_F|sdf|37|dock6|1
     RDKit          3D

 15 14  0  0  0  0  0  0  0  0999 V2000
  -12.9026  -19.3956   11.4692 O   0  0  0  0  0  0  0  0  0  0  0  0
  -11.8626  -18.6653   11.9120 C   0  0  0  0  0  0  0  0  0  0  0  0
  -12.0264  -17.5997   12.4876 O   0  0  0  0  0  0  0  0  0  0  0  0
  -10.5123  -19.2612   11.5641 C   0  0  0  0  0  0  0  0  0  0  0  0
  -10.6721  -20.5819   11.0281 O   0  0  0  0  0  0  0  0  0  0  0  0
   -9.7903  -18.4057   10.5269 C   0  0  0  0  0  0  0  0  0  0  0  0
   -9.6466  -17.0422   11.0047 N   0  0  0  0  0  0  0  0  0  0  0  0
   -8.4232  -16.4302   11.1772 C   0  0  0  0  0  0  0  0  0  0  0  0
   -7.3458  -16.9817   10.9644 O   0  0  0  0  0  0  0  0  0  0  0  0
   -8.5385  -14.9965   11.7207 C   0  0  0  0  0  0  0  0  0  0  0  0
   -9.2035  -14.1549   10.7180 N   0  0  0  0  0  0  0  0  0  0  0  0
   -7.1377  -14.4910   12.0976 C   0  0  0  0  0  0  0  0  0  0  0  0
   -7.0962  -12.9801   12.3405 C   0  0  0  0  0  0  0  0  0  0  0  0
   -5.6718  -12.4424   12.2016 C   0  0  0  0  0  0  0  0  0  0  0  0
   -5.4768  -11.3127   13.0984 N   0  0  0  0  0  0  0  0  0  0  0  0
  1  2  1  0
  2  3  2  0
  2  4  1  0
  4  5  1  0
  4  6  1  0
  6  7  1  0
  7  8  1  0
  8  9  2  0
  8 10  1  0
 10 11  1  0
 10 12  1  0
 12 13  1  0
 13 14  1  0
 14 15  1  0
M  END
>  <Gold.Gold.Protein.RotatedWaterAtoms>  (266) 


>  <Gold.Id.Protein>  (266) 


>  <Gold.PLP.Chemscore.CHOScore>  (266) 
0.0000

>  <Gold.PLP.Chemscore.Hbond>  (266) 
3.6880

>  <Gold.PLP.Chemscore.Internal.Correction>  (266) 
0.1297

>  <Gold.PLP.Chemscore.Metal>  (266) 
0.0000

>  <Gold.PLP.Fitness>  (266) 
44.9010

>  <Gold.PLP.PLP>  (266) 
-34.9359

>  <Gold.PLP.ligand.clash>  (266) 
0.0000

>  <Gold.PLP.ligand.torsion>  (266) 
0.6143

>  <Gold.PLP.part.buried>  (266) 
-5.4646

>  <Gold.PLP.part.hbond>  (266) 
-7.6302

>  <Gold.PLP.part.metal>  (266) 
0.0000

>  <Gold.PLP.part.nonpolar>  (266) 
-21.0255

>  <Gold.PLP.part.repulsive>  (266) 
0.0809

>  <Gold.Protein.RotatedAtoms>  (266) 


>  <Gold.Protein.RotatedTorsions>  (266) 


>  <Gold.Protein.RotatedWaterAtoms>  (266) 


>  <Gold.Version>  (266) 
5.3.0

>  <PLP.Chemscore.CHOScore>  (266) 


>  <PLP.Chemscore.Hbond>  (266) 


>  <PLP.Chemscore.Internal.Correction>  (266) 


>  <PLP.Chemscore.Metal>  (266) 


>  <PLP.Fitness>  (266) 


>  <PLP.PLP>  (266) 


>  <PLP.ligand.clash>  (266) 


>  <PLP.ligand.torsion>  (266) 


>  <PLP.part.buried>  (266) 


>  <PLP.part.hbond>  (266) 


>  <PLP.part.metal>  (266) 


>  <PLP.part.nonpolar>  (266) 


>  <PLP.part.repulsive>  (266) 


>  <Version>  (266) 


$$$$
266|Compound_163|Compounds_3D_F|sdf|37|dock7|1
     RDKit          3D

 15 14  0  0  0  0  0  0  0  0999 V2000
  -11.8880  -19.0776   11.1989 O   0  0  0  0  0  0  0  0  0  0  0  0
  -11.0348  -18.2554   11.8369 C   0  0  0  0  0  0  0  0  0  0  0  0
  -11.4314  -17.3039   12.4934 O   0  0  0  0  0  0  0  0  0  0  0  0
   -9.5758  -18.5921   11.5974 C   0  0  0  0  0  0  0  0  0  0  0  0
   -9.4575  -19.8609   10.9390 O   0  0  0  0  0  0  0  0  0  0  0  0
   -8.9087  -17.5334   10.7238 C   0  0  0  0  0  0  0  0  0  0  0  0
   -9.2675  -16.2016   11.1772 N   0  0  0  0  0  0  0  0  0  0  0  0
   -8.3675  -15.3393   11.7665 C   0  0  0  0  0  0  0  0  0  0  0  0
   -7.1905  -15.6199   11.9813 O   0  0  0  0  0  0  0  0  0  0  0  0
   -9.0002  -14.0014   12.1838 C   0  0  0  0  0  0  0  0  0  0  0  0
   -9.6607  -13.3987   11.0192 N   0  0  0  0  0  0  0  0  0  0  0  0
   -7.9127  -13.1025   12.7913 C   0  0  0  0  0  0  0  0  0  0  0  0
   -6.7142  -12.9064   11.8593 C   0  0  0  0  0  0  0  0  0  0  0  0
   -5.6601  -12.0068   12.5050 C   0  0  0  0  0  0  0  0  0  0  0  0
   -4.8190  -12.7887   13.3992 N   0  0  0  0  0  0  0  0  0  0  0  0
  1  2  1  0
  2  3  2  0
  2  4  1  0
  4  5  1  0
  4  6  1  0
  6  7  1  0
  7  8  1  0
  8  9  2  0
  8 10  1  0
 10 11  1  0
 10 12  1  0
 12 13  1  0
 13 14  1  0
 14 15  1  0
M  END
>  <Gold.Gold.Protein.RotatedWaterAtoms>  (267) 


>  <Gold.Id.Protein>  (267) 


>  <Gold.PLP.Chemscore.CHOScore>  (267) 
0.0000

>  <Gold.PLP.Chemscore.Hbond>  (267) 
3.9920

>  <Gold.PLP.Chemscore.Internal.Correction>  (267) 
0.1297

>  <Gold.PLP.Chemscore.Metal>  (267) 
0.0000

>  <Gold.PLP.Fitness>  (267) 
50.2555

>  <Gold.PLP.PLP>  (267) 
-39.0998

>  <Gold.PLP.ligand.clash>  (267) 
0.0000

>  <Gold.PLP.ligand.torsion>  (267) 
0.4750

>  <Gold.PLP.part.buried>  (267) 
-6.9243

>  <Gold.PLP.part.hbond>  (267) 
-7.5704

>  <Gold.PLP.part.metal>  (267) 
0.0000

>  <Gold.PLP.part.nonpolar>  (267) 
-23.8204

>  <Gold.PLP.part.repulsive>  (267) 
0.1560

>  <Gold.Protein.RotatedAtoms>  (267) 


>  <Gold.Protein.RotatedTorsions>  (267) 


>  <Gold.Protein.RotatedWaterAtoms>  (267) 


>  <Gold.Version>  (267) 
5.3.0

>  <PLP.Chemscore.CHOScore>  (267) 


>  <PLP.Chemscore.Hbond>  (267) 


>  <PLP.Chemscore.Internal.Correction>  (267) 


>  <PLP.Chemscore.Metal>  (267) 


>  <PLP.Fitness>  (267) 


>  <PLP.PLP>  (267) 


>  <PLP.ligand.clash>  (267) 


>  <PLP.ligand.torsion>  (267) 


>  <PLP.part.buried>  (267) 


>  <PLP.part.hbond>  (267) 


>  <PLP.part.metal>  (267) 


>  <PLP.part.nonpolar>  (267) 


>  <PLP.part.repulsive>  (267) 


>  <Version>  (267) 


$$$$
267|Compound_163|Compounds_3D_F|sdf|37|dock8|1
     RDKit          3D

 15 14  0  0  0  0  0  0  0  0999 V2000
  -11.5230  -20.3300   12.1450 O   0  0  0  0  0  0  0  0  0  0  0  0
  -10.9079  -19.1371   12.0479 C   0  0  0  0  0  0  0  0  0  0  0  0
  -11.4138  -18.1169   12.4918 O   0  0  0  0  0  0  0  0  0  0  0  0
   -9.5959  -19.1919   11.2895 C   0  0  0  0  0  0  0  0  0  0  0  0
   -9.3826  -20.5055   10.7547 O   0  0  0  0  0  0  0  0  0  0  0  0
   -9.5931  -18.1959   10.1333 C   0  0  0  0  0  0  0  0  0  0  0  0
   -9.4802  -16.8377   10.6336 N   0  0  0  0  0  0  0  0  0  0  0  0
   -8.2806  -16.2714   11.0095 C   0  0  0  0  0  0  0  0  0  0  0  0
   -7.2042  -16.8631   10.9768 O   0  0  0  0  0  0  0  0  0  0  0  0
   -8.4313  -14.8331   11.5318 C   0  0  0  0  0  0  0  0  0  0  0  0
   -9.1576  -14.0344   10.5365 N   0  0  0  0  0  0  0  0  0  0  0  0
   -7.0390  -14.2706   11.8553 C   0  0  0  0  0  0  0  0  0  0  0  0
   -7.0940  -12.8946   12.5240 C   0  0  0  0  0  0  0  0  0  0  0  0
   -5.7881  -12.1293   12.3098 C   0  0  0  0  0  0  0  0  0  0  0  0
   -4.8011  -12.5434   13.2961 N   0  0  0  0  0  0  0  0  0  0  0  0
  1  2  1  0
  2  3  2  0
  2  4  1  0
  4  5  1  0
  4  6  1  0
  6  7  1  0
  7  8  1  0
  8  9  2  0
  8 10  1  0
 10 11  1  0
 10 12  1  0
 12 13  1  0
 13 14  1  0
 14 15  1  0
M  END
>  <Gold.Gold.Protein.RotatedWaterAtoms>  (268) 


>  <Gold.Id.Protein>  (268) 


>  <Gold.PLP.Chemscore.CHOScore>  (268) 
0.0000

>  <Gold.PLP.Chemscore.Hbond>  (268) 
3.9413

>  <Gold.PLP.Chemscore.Internal.Correction>  (268) 
0.1297

>  <Gold.PLP.Chemscore.Metal>  (268) 
0.0000

>  <Gold.PLP.Fitness>  (268) 
46.3421

>  <Gold.PLP.PLP>  (268) 
-35.7024

>  <Gold.PLP.ligand.clash>  (268) 
0.0000

>  <Gold.PLP.ligand.torsion>  (268) 
0.6569

>  <Gold.PLP.part.buried>  (268) 
-8.0004

>  <Gold.PLP.part.hbond>  (268) 
-7.0185

>  <Gold.PLP.part.metal>  (268) 
0.0000

>  <Gold.PLP.part.nonpolar>  (268) 
-20.7572

>  <Gold.PLP.part.repulsive>  (268) 
0.0323

>  <Gold.Protein.RotatedAtoms>  (268) 


>  <Gold.Protein.RotatedTorsions>  (268) 


>  <Gold.Protein.RotatedWaterAtoms>  (268) 


>  <Gold.Version>  (268) 
5.3.0

>  <PLP.Chemscore.CHOScore>  (268) 


>  <PLP.Chemscore.Hbond>  (268) 


>  <PLP.Chemscore.Internal.Correction>  (268) 


>  <PLP.Chemscore.Metal>  (268) 


>  <PLP.Fitness>  (268) 


>  <PLP.PLP>  (268) 


>  <PLP.ligand.clash>  (268) 


>  <PLP.ligand.torsion>  (268) 


>  <PLP.part.buried>  (268) 


>  <PLP.part.hbond>  (268) 


>  <PLP.part.metal>  (268) 


>  <PLP.part.nonpolar>  (268) 


>  <PLP.part.repulsive>  (268) 


>  <Version>  (268) 


$$$$
268|Compound_163|Compounds_3D_F|sdf|37|dock9|1
     RDKit          3D

 15 14  0  0  0  0  0  0  0  0999 V2000
  -11.7446  -20.5366   11.7200 O   0  0  0  0  0  0  0  0  0  0  0  0
  -10.6032  -19.9125   11.3754 C   0  0  0  0  0  0  0  0  0  0  0  0
   -9.5334  -20.5027   11.3462 O   0  0  0  0  0  0  0  0  0  0  0  0
  -10.7805  -18.4308   11.1063 C   0  0  0  0  0  0  0  0  0  0  0  0
  -11.3985  -17.7893   12.2304 O   0  0  0  0  0  0  0  0  0  0  0  0
   -9.4345  -17.7589   10.8498 C   0  0  0  0  0  0  0  0  0  0  0  0
   -9.4913  -16.3540   11.2114 N   0  0  0  0  0  0  0  0  0  0  0  0
   -8.3709  -15.5567   11.3118 C   0  0  0  0  0  0  0  0  0  0  0  0
   -7.2250  -15.9599   11.1263 O   0  0  0  0  0  0  0  0  0  0  0  0
   -8.6940  -14.1150   11.7377 C   0  0  0  0  0  0  0  0  0  0  0  0
   -9.9159  -13.6745   11.0528 N   0  0  0  0  0  0  0  0  0  0  0  0
   -7.4807  -13.2218   11.4381 C   0  0  0  0  0  0  0  0  0  0  0  0
   -6.3285  -13.4337   12.4237 C   0  0  0  0  0  0  0  0  0  0  0  0
   -5.4349  -12.1954   12.4954 C   0  0  0  0  0  0  0  0  0  0  0  0
   -4.5820  -12.2648   13.6727 N   0  0  0  0  0  0  0  0  0  0  0  0
  1  2  1  0
  2  3  2  0
  2  4  1  0
  4  5  1  0
  4  6  1  0
  6  7  1  0
  7  8  1  0
  8  9  2  0
  8 10  1  0
 10 11  1  0
 10 12  1  0
 12 13  1  0
 13 14  1  0
 14 15  1  0
M  END
>  <Gold.Gold.Protein.RotatedWaterAtoms>  (269) 


>  <Gold.Id.Protein>  (269) 


>  <Gold.PLP.Chemscore.CHOScore>  (269) 
0.0000

>  <Gold.PLP.Chemscore.Hbond>  (269) 
6.5028

>  <Gold.PLP.Chemscore.Internal.Correction>  (269) 
0.1297

>  <Gold.PLP.Chemscore.Metal>  (269) 
0.0000

>  <Gold.PLP.Fitness>  (269) 
54.5114

>  <Gold.PLP.PLP>  (269) 
-37.3670

>  <Gold.PLP.ligand.clash>  (269) 
0.0000

>  <Gold.PLP.ligand.torsion>  (269) 
1.2469

>  <Gold.PLP.part.buried>  (269) 
-8.2202

>  <Gold.PLP.part.hbond>  (269) 
-7.5188

>  <Gold.PLP.part.metal>  (269) 
0.0000

>  <Gold.PLP.part.nonpolar>  (269) 
-22.4355

>  <Gold.PLP.part.repulsive>  (269) 
0.0692

>  <Gold.Protein.RotatedAtoms>  (269) 


>  <Gold.Protein.RotatedTorsions>  (269) 


>  <Gold.Protein.RotatedWaterAtoms>  (269) 


>  <Gold.Version>  (269) 
5.3.0

>  <PLP.Chemscore.CHOScore>  (269) 


>  <PLP.Chemscore.Hbond>  (269) 


>  <PLP.Chemscore.Internal.Correction>  (269) 


>  <PLP.Chemscore.Metal>  (269) 


>  <PLP.Fitness>  (269) 


>  <PLP.PLP>  (269) 


>  <PLP.ligand.clash>  (269) 


>  <PLP.ligand.torsion>  (269) 


>  <PLP.part.buried>  (269) 


>  <PLP.part.hbond>  (269) 


>  <PLP.part.metal>  (269) 


>  <PLP.part.nonpolar>  (269) 


>  <PLP.part.repulsive>  (269) 


>  <Version>  (269) 


$$$$
269|Compound_164|Compounds_3D_F|sdf|38|dock1|1
     RDKit          3D

 10  9  0  0  0  0  0  0  0  0999 V2000
   -9.8108  -14.3956   12.6098 N   0  0  0  0  0  0  0  0  0  0  0  0
   -8.8048  -14.2096   11.5705 C   0  0  0  0  0  0  0  0  0  0  0  0
   -8.1760  -12.8205   11.6803 C   0  0  0  0  0  0  0  0  0  0  0  0
   -7.1246  -12.7754   12.7957 C   0  0  0  0  0  0  0  0  0  0  0  0
   -5.7184  -13.1495   12.3053 C   0  0  0  0  0  0  0  0  0  0  0  0
   -4.6794  -12.4995   13.1228 N   0  0  0  0  0  0  0  0  0  0  0  0
   -5.5307  -14.6769   12.3740 C   0  0  0  0  0  0  0  0  0  0  0  0
   -6.4007  -15.4290   12.8105 O   0  0  0  0  0  0  0  0  0  0  0  0
   -4.3059  -15.1137   11.9058 N   0  0  0  0  0  0  0  0  0  0  0  0
   -3.9629  -16.5149   11.9053 C   0  0  0  0  0  0  0  0  0  0  0  0
  1  2  1  0
  2  3  1  0
  3  4  1  0
  4  5  1  0
  5  6  1  0
  5  7  1  0
  7  8  2  0
  7  9  1  0
  9 10  1  0
M  END
>  <Gold.Gold.Protein.RotatedWaterAtoms>  (270) 


>  <Gold.Id.Protein>  (270) 


>  <Gold.PLP.Chemscore.CHOScore>  (270) 
0.0000

>  <Gold.PLP.Chemscore.Hbond>  (270) 
3.6400

>  <Gold.PLP.Chemscore.Internal.Correction>  (270) 
0.0126

>  <Gold.PLP.Chemscore.Metal>  (270) 
0.0000

>  <Gold.PLP.Fitness>  (270) 
44.7892

>  <Gold.PLP.PLP>  (270) 
-35.0545

>  <Gold.PLP.ligand.clash>  (270) 
0.0000

>  <Gold.PLP.ligand.torsion>  (270) 
0.5989

>  <Gold.PLP.part.buried>  (270) 
-7.3629

>  <Gold.PLP.part.hbond>  (270) 
-7.1867

>  <Gold.PLP.part.metal>  (270) 
0.0000

>  <Gold.PLP.part.nonpolar>  (270) 
-21.1460

>  <Gold.PLP.part.repulsive>  (270) 
0.2751

>  <Gold.Protein.RotatedAtoms>  (270) 


>  <Gold.Protein.RotatedTorsions>  (270) 


>  <Gold.Protein.RotatedWaterAtoms>  (270) 


>  <Gold.Version>  (270) 
5.3.0

>  <PLP.Chemscore.CHOScore>  (270) 


>  <PLP.Chemscore.Hbond>  (270) 


>  <PLP.Chemscore.Internal.Correction>  (270) 


>  <PLP.Chemscore.Metal>  (270) 


>  <PLP.Fitness>  (270) 


>  <PLP.PLP>  (270) 


>  <PLP.ligand.clash>  (270) 


>  <PLP.ligand.torsion>  (270) 


>  <PLP.part.buried>  (270) 


>  <PLP.part.hbond>  (270) 


>  <PLP.part.metal>  (270) 


>  <PLP.part.nonpolar>  (270) 


>  <PLP.part.repulsive>  (270) 


>  <Version>  (270) 


$$$$
270|Compound_164|Compounds_3D_F|sdf|38|dock2|1
     RDKit          3D

 10  9  0  0  0  0  0  0  0  0999 V2000
   -8.5069  -10.1105   10.6990 N   0  0  0  0  0  0  0  0  0  0  0  0
   -7.8949   -9.6384   11.9357 C   0  0  0  0  0  0  0  0  0  0  0  0
   -6.6007  -10.4025   12.2150 C   0  0  0  0  0  0  0  0  0  0  0  0
   -6.8175  -11.9167   12.1069 C   0  0  0  0  0  0  0  0  0  0  0  0
   -5.5070  -12.7137   12.1807 C   0  0  0  0  0  0  0  0  0  0  0  0
   -4.6903  -12.2894   13.3311 N   0  0  0  0  0  0  0  0  0  0  0  0
   -5.8169  -14.2170   12.3105 C   0  0  0  0  0  0  0  0  0  0  0  0
   -6.9643  -14.6465   12.4199 O   0  0  0  0  0  0  0  0  0  0  0  0
   -4.6956  -15.0249   12.2941 N   0  0  0  0  0  0  0  0  0  0  0  0
   -4.8061  -16.4583   12.4125 C   0  0  0  0  0  0  0  0  0  0  0  0
  1  2  1  0
  2  3  1  0
  3  4  1  0
  4  5  1  0
  5  6  1  0
  5  7  1  0
  7  8  2  0
  7  9  1  0
  9 10  1  0
M  END
>  <Gold.Gold.Protein.RotatedWaterAtoms>  (271) 


>  <Gold.Id.Protein>  (271) 


>  <Gold.PLP.Chemscore.CHOScore>  (271) 
0.0000

>  <Gold.PLP.Chemscore.Hbond>  (271) 
3.8160

>  <Gold.PLP.Chemscore.Internal.Correction>  (271) 
0.0080

>  <Gold.PLP.Chemscore.Metal>  (271) 
0.0000

>  <Gold.PLP.Fitness>  (271) 
53.5652

>  <Gold.PLP.PLP>  (271) 
-42.3401

>  <Gold.PLP.ligand.clash>  (271) 
0.0000

>  <Gold.PLP.ligand.torsion>  (271) 
0.1154

>  <Gold.PLP.part.buried>  (271) 
-9.0075

>  <Gold.PLP.part.hbond>  (271) 
-8.6636

>  <Gold.PLP.part.metal>  (271) 
0.0000

>  <Gold.PLP.part.nonpolar>  (271) 
-26.3990

>  <Gold.PLP.part.repulsive>  (271) 
0.2150

>  <Gold.Protein.RotatedAtoms>  (271) 


>  <Gold.Protein.RotatedTorsions>  (271) 


>  <Gold.Protein.RotatedWaterAtoms>  (271) 


>  <Gold.Version>  (271) 
5.3.0

>  <PLP.Chemscore.CHOScore>  (271) 


>  <PLP.Chemscore.Hbond>  (271) 


>  <PLP.Chemscore.Internal.Correction>  (271) 


>  <PLP.Chemscore.Metal>  (271) 


>  <PLP.Fitness>  (271) 


>  <PLP.PLP>  (271) 


>  <PLP.ligand.clash>  (271) 


>  <PLP.ligand.torsion>  (271) 


>  <PLP.part.buried>  (271) 


>  <PLP.part.hbond>  (271) 


>  <PLP.part.metal>  (271) 


>  <PLP.part.nonpolar>  (271) 


>  <PLP.part.repulsive>  (271) 


>  <Version>  (271) 


$$$$
271|Compound_164|Compounds_3D_F|sdf|38|dock3|1
     RDKit          3D

 10  9  0  0  0  0  0  0  0  0999 V2000
   -4.6502  -12.4737   13.4008 N   0  0  0  0  0  0  0  0  0  0  0  0
   -5.5214  -12.0403   12.3146 C   0  0  0  0  0  0  0  0  0  0  0  0
   -6.9287  -12.6071   12.5021 C   0  0  0  0  0  0  0  0  0  0  0  0
   -7.2013  -13.7494   11.5159 C   0  0  0  0  0  0  0  0  0  0  0  0
   -8.4632  -14.5512   11.8660 C   0  0  0  0  0  0  0  0  0  0  0  0
   -9.6630  -13.6970   11.8316 N   0  0  0  0  0  0  0  0  0  0  0  0
   -8.6406  -15.7087   10.8652 C   0  0  0  0  0  0  0  0  0  0  0  0
   -8.5425  -16.8888   11.1980 O   0  0  0  0  0  0  0  0  0  0  0  0
   -8.9149  -15.2979    9.5744 N   0  0  0  0  0  0  0  0  0  0  0  0
   -9.1029  -16.2536    8.5104 C   0  0  0  0  0  0  0  0  0  0  0  0
  1  2  1  0
  2  3  1  0
  3  4  1  0
  4  5  1  0
  5  6  1  0
  5  7  1  0
  7  8  2  0
  7  9  1  0
  9 10  1  0
M  END
>  <Gold.Gold.Protein.RotatedWaterAtoms>  (272) 


>  <Gold.Id.Protein>  (272) 


>  <Gold.PLP.Chemscore.CHOScore>  (272) 
0.0000

>  <Gold.PLP.Chemscore.Hbond>  (272) 
3.8160

>  <Gold.PLP.Chemscore.Internal.Correction>  (272) 
0.0080

>  <Gold.PLP.Chemscore.Metal>  (272) 
0.0000

>  <Gold.PLP.Fitness>  (272) 
39.9769

>  <Gold.PLP.PLP>  (272) 
-29.3842

>  <Gold.PLP.ligand.clash>  (272) 
0.0000

>  <Gold.PLP.ligand.torsion>  (272) 
0.4316

>  <Gold.PLP.part.buried>  (272) 
-6.4110

>  <Gold.PLP.part.hbond>  (272) 
-5.5829

>  <Gold.PLP.part.metal>  (272) 
0.0000

>  <Gold.PLP.part.nonpolar>  (272) 
-17.8252

>  <Gold.PLP.part.repulsive>  (272) 
0.0689

>  <Gold.Protein.RotatedAtoms>  (272) 


>  <Gold.Protein.RotatedTorsions>  (272) 


>  <Gold.Protein.RotatedWaterAtoms>  (272) 


>  <Gold.Version>  (272) 
5.3.0

>  <PLP.Chemscore.CHOScore>  (272) 


>  <PLP.Chemscore.Hbond>  (272) 


>  <PLP.Chemscore.Internal.Correction>  (272) 


>  <PLP.Chemscore.Metal>  (272) 


>  <PLP.Fitness>  (272) 


>  <PLP.PLP>  (272) 


>  <PLP.ligand.clash>  (272) 


>  <PLP.ligand.torsion>  (272) 


>  <PLP.part.buried>  (272) 


>  <PLP.part.hbond>  (272) 


>  <PLP.part.metal>  (272) 


>  <PLP.part.nonpolar>  (272) 


>  <PLP.part.repulsive>  (272) 


>  <Version>  (272) 


$$$$
272|Compound_164|Compounds_3D_F|sdf|38|dock4|1
     RDKit          3D

 10  9  0  0  0  0  0  0  0  0999 V2000
   -4.5597  -12.2533   13.4469 N   0  0  0  0  0  0  0  0  0  0  0  0
   -5.5126  -12.0497   12.3620 C   0  0  0  0  0  0  0  0  0  0  0  0
   -6.7885  -12.8525   12.6160 C   0  0  0  0  0  0  0  0  0  0  0  0
   -7.6693  -12.9035   11.3618 C   0  0  0  0  0  0  0  0  0  0  0  0
   -8.7932  -13.9449   11.4642 C   0  0  0  0  0  0  0  0  0  0  0  0
  -10.0761  -13.3909   10.9978 N   0  0  0  0  0  0  0  0  0  0  0  0
   -8.4395  -15.1798   10.6140 C   0  0  0  0  0  0  0  0  0  0  0  0
   -7.6716  -16.0552   11.0106 O   0  0  0  0  0  0  0  0  0  0  0  0
   -9.0587  -15.2072    9.3788 N   0  0  0  0  0  0  0  0  0  0  0  0
   -8.8321  -16.2905    8.4535 C   0  0  0  0  0  0  0  0  0  0  0  0
  1  2  1  0
  2  3  1  0
  3  4  1  0
  4  5  1  0
  5  6  1  0
  5  7  1  0
  7  8  2  0
  7  9  1  0
  9 10  1  0
M  END
>  <Gold.Gold.Protein.RotatedWaterAtoms>  (273) 


>  <Gold.Id.Protein>  (273) 


>  <Gold.PLP.Chemscore.CHOScore>  (273) 
0.0000

>  <Gold.PLP.Chemscore.Hbond>  (273) 
4.9435

>  <Gold.PLP.Chemscore.Internal.Correction>  (273) 
0.0080

>  <Gold.PLP.Chemscore.Metal>  (273) 
0.0000

>  <Gold.PLP.Fitness>  (273) 
42.8266

>  <Gold.PLP.PLP>  (273) 
-30.6267

>  <Gold.PLP.ligand.clash>  (273) 
0.0000

>  <Gold.PLP.ligand.torsion>  (273) 
1.3193

>  <Gold.PLP.part.buried>  (273) 
-5.9258

>  <Gold.PLP.part.hbond>  (273) 
-6.4950

>  <Gold.PLP.part.metal>  (273) 
0.0000

>  <Gold.PLP.part.nonpolar>  (273) 
-17.9869

>  <Gold.PLP.part.repulsive>  (273) 
0.0760

>  <Gold.Protein.RotatedAtoms>  (273) 


>  <Gold.Protein.RotatedTorsions>  (273) 


>  <Gold.Protein.RotatedWaterAtoms>  (273) 


>  <Gold.Version>  (273) 
5.3.0

>  <PLP.Chemscore.CHOScore>  (273) 


>  <PLP.Chemscore.Hbond>  (273) 


>  <PLP.Chemscore.Internal.Correction>  (273) 


>  <PLP.Chemscore.Metal>  (273) 


>  <PLP.Fitness>  (273) 


>  <PLP.PLP>  (273) 


>  <PLP.ligand.clash>  (273) 


>  <PLP.ligand.torsion>  (273) 


>  <PLP.part.buried>  (273) 


>  <PLP.part.hbond>  (273) 


>  <PLP.part.metal>  (273) 


>  <PLP.part.nonpolar>  (273) 


>  <PLP.part.repulsive>  (273) 


>  <Version>  (273) 


$$$$
273|Compound_164|Compounds_3D_F|sdf|38|dock5|1
     RDKit          3D

 10  9  0  0  0  0  0  0  0  0999 V2000
   -4.6034  -12.5008   13.6671 N   0  0  0  0  0  0  0  0  0  0  0  0
   -5.4458  -12.2627   12.5008 C   0  0  0  0  0  0  0  0  0  0  0  0
   -6.4279  -13.4183   12.3083 C   0  0  0  0  0  0  0  0  0  0  0  0
   -7.6247  -12.9906   11.4503 C   0  0  0  0  0  0  0  0  0  0  0  0
   -8.7678  -14.0157   11.4677 C   0  0  0  0  0  0  0  0  0  0  0  0
  -10.0280  -13.4155   10.9966 N   0  0  0  0  0  0  0  0  0  0  0  0
   -8.4109  -15.2110   10.5639 C   0  0  0  0  0  0  0  0  0  0  0  0
   -7.5974  -16.0708   10.8988 O   0  0  0  0  0  0  0  0  0  0  0  0
   -9.0827  -15.2221    9.3562 N   0  0  0  0  0  0  0  0  0  0  0  0
   -8.8610  -16.2680    8.3877 C   0  0  0  0  0  0  0  0  0  0  0  0
  1  2  1  0
  2  3  1  0
  3  4  1  0
  4  5  1  0
  5  6  1  0
  5  7  1  0
  7  8  2  0
  7  9  1  0
  9 10  1  0
M  END
>  <Gold.Gold.Protein.RotatedWaterAtoms>  (274) 


>  <Gold.Id.Protein>  (274) 


>  <Gold.PLP.Chemscore.CHOScore>  (274) 
0.0000

>  <Gold.PLP.Chemscore.Hbond>  (274) 
4.8640

>  <Gold.PLP.Chemscore.Internal.Correction>  (274) 
0.0064

>  <Gold.PLP.Chemscore.Metal>  (274) 
0.0000

>  <Gold.PLP.Fitness>  (274) 
44.4872

>  <Gold.PLP.PLP>  (274) 
-31.2665

>  <Gold.PLP.ligand.clash>  (274) 
0.0000

>  <Gold.PLP.ligand.torsion>  (274) 
0.6889

>  <Gold.PLP.part.buried>  (274) 
-5.8993

>  <Gold.PLP.part.hbond>  (274) 
-6.5862

>  <Gold.PLP.part.metal>  (274) 
0.0000

>  <Gold.PLP.part.nonpolar>  (274) 
-18.8266

>  <Gold.PLP.part.repulsive>  (274) 
0.0679

>  <Gold.Protein.RotatedAtoms>  (274) 


>  <Gold.Protein.RotatedTorsions>  (274) 


>  <Gold.Protein.RotatedWaterAtoms>  (274) 


>  <Gold.Version>  (274) 
5.3.0

>  <PLP.Chemscore.CHOScore>  (274) 


>  <PLP.Chemscore.Hbond>  (274) 


>  <PLP.Chemscore.Internal.Correction>  (274) 


>  <PLP.Chemscore.Metal>  (274) 


>  <PLP.Fitness>  (274) 


>  <PLP.PLP>  (274) 


>  <PLP.ligand.clash>  (274) 


>  <PLP.ligand.torsion>  (274) 


>  <PLP.part.buried>  (274) 


>  <PLP.part.hbond>  (274) 


>  <PLP.part.metal>  (274) 


>  <PLP.part.nonpolar>  (274) 


>  <PLP.part.repulsive>  (274) 


>  <Version>  (274) 


$$$$
274|Compound_164|Compounds_3D_F|sdf|38|dock6|1
     RDKit          3D

 10  9  0  0  0  0  0  0  0  0999 V2000
   -4.9126  -12.9981   13.1621 N   0  0  0  0  0  0  0  0  0  0  0  0
   -5.7209  -11.9869   12.4906 C   0  0  0  0  0  0  0  0  0  0  0  0
   -7.1363  -12.5112   12.2483 C   0  0  0  0  0  0  0  0  0  0  0  0
   -7.1127  -13.9678   11.7694 C   0  0  0  0  0  0  0  0  0  0  0  0
   -8.5168  -14.5345   11.5137 C   0  0  0  0  0  0  0  0  0  0  0  0
   -9.4081  -13.5099   10.9426 N   0  0  0  0  0  0  0  0  0  0  0  0
   -8.4298  -15.7252   10.5403 C   0  0  0  0  0  0  0  0  0  0  0  0
   -7.8354  -16.7647   10.8217 O   0  0  0  0  0  0  0  0  0  0  0  0
   -9.0740  -15.5141    9.3359 N   0  0  0  0  0  0  0  0  0  0  0  0
   -9.0843  -16.5251    8.3070 C   0  0  0  0  0  0  0  0  0  0  0  0
  1  2  1  0
  2  3  1  0
  3  4  1  0
  4  5  1  0
  5  6  1  0
  5  7  1  0
  7  8  2  0
  7  9  1  0
  9 10  1  0
M  END
>  <Gold.Gold.Protein.RotatedWaterAtoms>  (275) 


>  <Gold.Id.Protein>  (275) 


>  <Gold.PLP.Chemscore.CHOScore>  (275) 
0.0000

>  <Gold.PLP.Chemscore.Hbond>  (275) 
4.9840

>  <Gold.PLP.Chemscore.Internal.Correction>  (275) 
0.0064

>  <Gold.PLP.Chemscore.Metal>  (275) 
0.0000

>  <Gold.PLP.Fitness>  (275) 
42.8994

>  <Gold.PLP.PLP>  (275) 
-28.6734

>  <Gold.PLP.ligand.clash>  (275) 
0.0000

>  <Gold.PLP.ligand.torsion>  (275) 
0.3662

>  <Gold.PLP.part.buried>  (275) 
-6.2615

>  <Gold.PLP.part.hbond>  (275) 
-5.6542

>  <Gold.PLP.part.metal>  (275) 
0.0000

>  <Gold.PLP.part.nonpolar>  (275) 
-16.6810

>  <Gold.PLP.part.repulsive>  (275) 
0.0432

>  <Gold.Protein.RotatedAtoms>  (275) 


>  <Gold.Protein.RotatedTorsions>  (275) 


>  <Gold.Protein.RotatedWaterAtoms>  (275) 


>  <Gold.Version>  (275) 
5.3.0

>  <PLP.Chemscore.CHOScore>  (275) 


>  <PLP.Chemscore.Hbond>  (275) 


>  <PLP.Chemscore.Internal.Correction>  (275) 


>  <PLP.Chemscore.Metal>  (275) 


>  <PLP.Fitness>  (275) 


>  <PLP.PLP>  (275) 


>  <PLP.ligand.clash>  (275) 


>  <PLP.ligand.torsion>  (275) 


>  <PLP.part.buried>  (275) 


>  <PLP.part.hbond>  (275) 


>  <PLP.part.metal>  (275) 


>  <PLP.part.nonpolar>  (275) 


>  <PLP.part.repulsive>  (275) 


>  <Version>  (275) 


$$$$
275|Compound_164|Compounds_3D_F|sdf|38|dock7|1
     RDKit          3D

 10  9  0  0  0  0  0  0  0  0999 V2000
   -4.7393  -12.2196   13.3569 N   0  0  0  0  0  0  0  0  0  0  0  0
   -5.7110  -11.9381   12.3065 C   0  0  0  0  0  0  0  0  0  0  0  0
   -6.9663  -12.7886   12.5003 C   0  0  0  0  0  0  0  0  0  0  0  0
   -7.1996  -13.7128   11.2991 C   0  0  0  0  0  0  0  0  0  0  0  0
   -8.5235  -14.4856   11.3892 C   0  0  0  0  0  0  0  0  0  0  0  0
   -9.6647  -13.6311   11.0179 N   0  0  0  0  0  0  0  0  0  0  0  0
   -8.4811  -15.7052   10.4492 C   0  0  0  0  0  0  0  0  0  0  0  0
   -8.4000  -16.8586   10.8691 O   0  0  0  0  0  0  0  0  0  0  0  0
   -8.5404  -15.3818    9.1068 N   0  0  0  0  0  0  0  0  0  0  0  0
   -8.5049  -16.4044    8.0899 C   0  0  0  0  0  0  0  0  0  0  0  0
  1  2  1  0
  2  3  1  0
  3  4  1  0
  4  5  1  0
  5  6  1  0
  5  7  1  0
  7  8  2  0
  7  9  1  0
  9 10  1  0
M  END
>  <Gold.Gold.Protein.RotatedWaterAtoms>  (276) 


>  <Gold.Id.Protein>  (276) 


>  <Gold.PLP.Chemscore.CHOScore>  (276) 
0.0000

>  <Gold.PLP.Chemscore.Hbond>  (276) 
4.5980

>  <Gold.PLP.Chemscore.Internal.Correction>  (276) 
0.0064

>  <Gold.PLP.Chemscore.Metal>  (276) 
0.0000

>  <Gold.PLP.Fitness>  (276) 
41.7157

>  <Gold.PLP.PLP>  (276) 
-29.4173

>  <Gold.PLP.ligand.clash>  (276) 
0.0000

>  <Gold.PLP.ligand.torsion>  (276) 
0.7510

>  <Gold.PLP.part.buried>  (276) 
-6.8375

>  <Gold.PLP.part.hbond>  (276) 
-5.8399

>  <Gold.PLP.part.metal>  (276) 
0.0000

>  <Gold.PLP.part.nonpolar>  (276) 
-17.3933

>  <Gold.PLP.part.repulsive>  (276) 
0.0733

>  <Gold.Protein.RotatedAtoms>  (276) 


>  <Gold.Protein.RotatedTorsions>  (276) 


>  <Gold.Protein.RotatedWaterAtoms>  (276) 


>  <Gold.Version>  (276) 
5.3.0

>  <PLP.Chemscore.CHOScore>  (276) 


>  <PLP.Chemscore.Hbond>  (276) 


>  <PLP.Chemscore.Internal.Correction>  (276) 


>  <PLP.Chemscore.Metal>  (276) 


>  <PLP.Fitness>  (276) 


>  <PLP.PLP>  (276) 


>  <PLP.ligand.clash>  (276) 


>  <PLP.ligand.torsion>  (276) 


>  <PLP.part.buried>  (276) 


>  <PLP.part.hbond>  (276) 


>  <PLP.part.metal>  (276) 


>  <PLP.part.nonpolar>  (276) 


>  <PLP.part.repulsive>  (276) 


>  <Version>  (276) 


$$$$
276|Compound_164|Compounds_3D_F|sdf|38|dock8|1
     RDKit          3D

 10  9  0  0  0  0  0  0  0  0999 V2000
   -4.4734  -12.4860   13.5846 N   0  0  0  0  0  0  0  0  0  0  0  0
   -5.4075  -12.2051   12.5005 C   0  0  0  0  0  0  0  0  0  0  0  0
   -6.4343  -13.3309   12.3770 C   0  0  0  0  0  0  0  0  0  0  0  0
   -7.7167  -12.8381   11.6957 C   0  0  0  0  0  0  0  0  0  0  0  0
   -8.7997  -13.9231   11.6071 C   0  0  0  0  0  0  0  0  0  0  0  0
  -10.0339  -13.3946   11.0006 N   0  0  0  0  0  0  0  0  0  0  0  0
   -8.2881  -15.1035   10.7599 C   0  0  0  0  0  0  0  0  0  0  0  0
   -7.4134  -15.8709   11.1588 O   0  0  0  0  0  0  0  0  0  0  0  0
   -8.8975  -15.2137    9.5243 N   0  0  0  0  0  0  0  0  0  0  0  0
   -8.5315  -16.2603    8.6016 C   0  0  0  0  0  0  0  0  0  0  0  0
  1  2  1  0
  2  3  1  0
  3  4  1  0
  4  5  1  0
  5  6  1  0
  5  7  1  0
  7  8  2  0
  7  9  1  0
  9 10  1  0
M  END
>  <Gold.Gold.Protein.RotatedWaterAtoms>  (277) 


>  <Gold.Id.Protein>  (277) 


>  <Gold.PLP.Chemscore.CHOScore>  (277) 
0.0000

>  <Gold.PLP.Chemscore.Hbond>  (277) 
4.8800

>  <Gold.PLP.Chemscore.Internal.Correction>  (277) 
0.0064

>  <Gold.PLP.Chemscore.Metal>  (277) 
0.0000

>  <Gold.PLP.Fitness>  (277) 
45.1974

>  <Gold.PLP.PLP>  (277) 
-31.3097

>  <Gold.PLP.ligand.clash>  (277) 
0.0000

>  <Gold.PLP.ligand.torsion>  (277) 
0.3793

>  <Gold.PLP.part.buried>  (277) 
-6.3217

>  <Gold.PLP.part.hbond>  (277) 
-6.3182

>  <Gold.PLP.part.metal>  (277) 
0.0000

>  <Gold.PLP.part.nonpolar>  (277) 
-19.3850

>  <Gold.PLP.part.repulsive>  (277) 
0.0823

>  <Gold.Protein.RotatedAtoms>  (277) 


>  <Gold.Protein.RotatedTorsions>  (277) 


>  <Gold.Protein.RotatedWaterAtoms>  (277) 


>  <Gold.Version>  (277) 
5.3.0

>  <PLP.Chemscore.CHOScore>  (277) 


>  <PLP.Chemscore.Hbond>  (277) 


>  <PLP.Chemscore.Internal.Correction>  (277) 


>  <PLP.Chemscore.Metal>  (277) 


>  <PLP.Fitness>  (277) 


>  <PLP.PLP>  (277) 


>  <PLP.ligand.clash>  (277) 


>  <PLP.ligand.torsion>  (277) 


>  <PLP.part.buried>  (277) 


>  <PLP.part.hbond>  (277) 


>  <PLP.part.metal>  (277) 


>  <PLP.part.nonpolar>  (277) 


>  <PLP.part.repulsive>  (277) 


>  <Version>  (277) 


$$$$
277|Compound_164|Compounds_3D_F|sdf|38|dock9|1
     RDKit          3D

 10  9  0  0  0  0  0  0  0  0999 V2000
   -4.4223  -12.4144   13.5976 N   0  0  0  0  0  0  0  0  0  0  0  0
   -5.3749  -12.2580   12.5046 C   0  0  0  0  0  0  0  0  0  0  0  0
   -6.4428  -13.3500   12.5685 C   0  0  0  0  0  0  0  0  0  0  0  0
   -7.2990  -13.3620   11.2964 C   0  0  0  0  0  0  0  0  0  0  0  0
   -8.3861  -14.4463   11.3193 C   0  0  0  0  0  0  0  0  0  0  0  0
   -9.7041  -13.8857   10.9741 N   0  0  0  0  0  0  0  0  0  0  0  0
   -8.0341  -15.5598   10.3148 C   0  0  0  0  0  0  0  0  0  0  0  0
   -7.6390  -16.6687   10.6717 O   0  0  0  0  0  0  0  0  0  0  0  0
   -8.2010  -15.1960    8.9920 N   0  0  0  0  0  0  0  0  0  0  0  0
   -7.9098  -16.1179    7.9213 C   0  0  0  0  0  0  0  0  0  0  0  0
  1  2  1  0
  2  3  1  0
  3  4  1  0
  4  5  1  0
  5  6  1  0
  5  7  1  0
  7  8  2  0
  7  9  1  0
  9 10  1  0
M  END
>  <Gold.Gold.Protein.RotatedWaterAtoms>  (278) 


>  <Gold.Id.Protein>  (278) 


>  <Gold.PLP.Chemscore.CHOScore>  (278) 
0.0000

>  <Gold.PLP.Chemscore.Hbond>  (278) 
4.9516

>  <Gold.PLP.Chemscore.Internal.Correction>  (278) 
0.0064

>  <Gold.PLP.Chemscore.Metal>  (278) 
0.0000

>  <Gold.PLP.Fitness>  (278) 
40.9912

>  <Gold.PLP.PLP>  (278) 
-28.0980

>  <Gold.PLP.ligand.clash>  (278) 
0.0000

>  <Gold.PLP.ligand.torsion>  (278) 
0.9840

>  <Gold.PLP.part.buried>  (278) 
-5.8839

>  <Gold.PLP.part.hbond>  (278) 
-5.7228

>  <Gold.PLP.part.metal>  (278) 
0.0000

>  <Gold.PLP.part.nonpolar>  (278) 
-17.6174

>  <Gold.PLP.part.repulsive>  (278) 
0.0955

>  <Gold.Protein.RotatedAtoms>  (278) 


>  <Gold.Protein.RotatedTorsions>  (278) 


>  <Gold.Protein.RotatedWaterAtoms>  (278) 


>  <Gold.Version>  (278) 
5.3.0

>  <PLP.Chemscore.CHOScore>  (278) 


>  <PLP.Chemscore.Hbond>  (278) 


>  <PLP.Chemscore.Internal.Correction>  (278) 


>  <PLP.Chemscore.Metal>  (278) 


>  <PLP.Fitness>  (278) 


>  <PLP.PLP>  (278) 


>  <PLP.ligand.clash>  (278) 


>  <PLP.ligand.torsion>  (278) 


>  <PLP.part.buried>  (278) 


>  <PLP.part.hbond>  (278) 


>  <PLP.part.metal>  (278) 


>  <PLP.part.nonpolar>  (278) 


>  <PLP.part.repulsive>  (278) 


>  <Version>  (278) 


$$$$
278|Compound_165|Compounds_3D_F|sdf|39|dock1|1
     RDKit          3D

 13 12  0  0  0  0  0  0  0  0999 V2000
  -11.2851  -18.8473   12.4320 O   0  0  0  0  0  0  0  0  0  0  0  0
  -10.2933  -19.7267   11.8994 C   0  0  0  0  0  0  0  0  0  0  0  0
   -9.4053  -18.9660   10.9052 C   0  0  0  0  0  0  0  0  0  0  0  0
   -8.8709  -17.7743   11.5565 N   0  0  0  0  0  0  0  0  0  0  0  0
   -9.0071  -16.4999   11.0499 C   0  0  0  0  0  0  0  0  0  0  0  0
   -9.6116  -16.2369   10.0123 O   0  0  0  0  0  0  0  0  0  0  0  0
   -8.3333  -15.4215   11.9186 C   0  0  0  0  0  0  0  0  0  0  0  0
   -9.3603  -14.5242   12.4744 N   0  0  0  0  0  0  0  0  0  0  0  0
   -7.3056  -14.6381   11.0878 C   0  0  0  0  0  0  0  0  0  0  0  0
   -6.7732  -13.3993   11.8157 C   0  0  0  0  0  0  0  0  0  0  0  0
   -5.6408  -13.7725   12.7715 C   0  0  0  0  0  0  0  0  0  0  0  0
   -4.8656  -12.5893   13.1205 N   0  0  0  0  0  0  0  0  0  0  0  0
   -8.2563  -19.8359   10.3992 C   0  0  0  0  0  0  0  0  0  0  0  0
  1  2  1  0
  2  3  1  0
  3  4  1  0
  3 13  1  0
  4  5  1  0
  5  6  2  0
  5  7  1  0
  7  8  1  0
  7  9  1  0
  9 10  1  0
 10 11  1  0
 11 12  1  0
M  END
>  <Gold.Gold.Protein.RotatedWaterAtoms>  (279) 


>  <Gold.Id.Protein>  (279) 


>  <Gold.PLP.Chemscore.CHOScore>  (279) 
0.0000

>  <Gold.PLP.Chemscore.Hbond>  (279) 
5.2793

>  <Gold.PLP.Chemscore.Internal.Correction>  (279) 
0.0302

>  <Gold.PLP.Chemscore.Metal>  (279) 
0.0000

>  <Gold.PLP.Fitness>  (279) 
48.2240

>  <Gold.PLP.PLP>  (279) 
-33.0655

>  <Gold.PLP.ligand.clash>  (279) 
0.0000

>  <Gold.PLP.ligand.torsion>  (279) 
0.3547

>  <Gold.PLP.part.buried>  (279) 
-6.1669

>  <Gold.PLP.part.hbond>  (279) 
-6.6556

>  <Gold.PLP.part.metal>  (279) 
0.0000

>  <Gold.PLP.part.nonpolar>  (279) 
-20.3062

>  <Gold.PLP.part.repulsive>  (279) 
0.1386

>  <Gold.Protein.RotatedAtoms>  (279) 


>  <Gold.Protein.RotatedTorsions>  (279) 


>  <Gold.Protein.RotatedWaterAtoms>  (279) 


>  <Gold.Version>  (279) 
5.3.0

>  <PLP.Chemscore.CHOScore>  (279) 


>  <PLP.Chemscore.Hbond>  (279) 


>  <PLP.Chemscore.Internal.Correction>  (279) 


>  <PLP.Chemscore.Metal>  (279) 


>  <PLP.Fitness>  (279) 


>  <PLP.PLP>  (279) 


>  <PLP.ligand.clash>  (279) 


>  <PLP.ligand.torsion>  (279) 


>  <PLP.part.buried>  (279) 


>  <PLP.part.hbond>  (279) 


>  <PLP.part.metal>  (279) 


>  <PLP.part.nonpolar>  (279) 


>  <PLP.part.repulsive>  (279) 


>  <Version>  (279) 


$$$$
279|Compound_165|Compounds_3D_F|sdf|39|dock2|1
     RDKit          3D

 13 12  0  0  0  0  0  0  0  0999 V2000
  -11.8883  -18.5800   12.5044 O   0  0  0  0  0  0  0  0  0  0  0  0
  -11.7512  -18.5006   11.0846 C   0  0  0  0  0  0  0  0  0  0  0  0
  -10.3030  -18.1446   10.7221 C   0  0  0  0  0  0  0  0  0  0  0  0
   -9.9851  -16.8267   11.2625 N   0  0  0  0  0  0  0  0  0  0  0  0
   -8.7691  -16.2020   11.0889 C   0  0  0  0  0  0  0  0  0  0  0  0
   -7.8396  -16.6812   10.4426 O   0  0  0  0  0  0  0  0  0  0  0  0
   -8.6840  -14.8276   11.7784 C   0  0  0  0  0  0  0  0  0  0  0  0
   -9.4280  -13.8329   10.9874 N   0  0  0  0  0  0  0  0  0  0  0  0
   -7.2152  -14.4111   11.9498 C   0  0  0  0  0  0  0  0  0  0  0  0
   -7.0576  -13.0816   12.6950 C   0  0  0  0  0  0  0  0  0  0  0  0
   -5.7534  -12.3879   12.3037 C   0  0  0  0  0  0  0  0  0  0  0  0
   -4.7825  -12.4937   13.3848 N   0  0  0  0  0  0  0  0  0  0  0  0
   -9.3179  -19.1766   11.2675 C   0  0  0  0  0  0  0  0  0  0  0  0
  1  2  1  0
  2  3  1  0
  3  4  1  0
  3 13  1  0
  4  5  1  0
  5  6  2  0
  5  7  1  0
  7  8  1  0
  7  9  1  0
  9 10  1  0
 10 11  1  0
 11 12  1  0
M  END
>  <Gold.Gold.Protein.RotatedWaterAtoms>  (280) 


>  <Gold.Id.Protein>  (280) 


>  <Gold.PLP.Chemscore.CHOScore>  (280) 
0.0000

>  <Gold.PLP.Chemscore.Hbond>  (280) 
4.3731

>  <Gold.PLP.Chemscore.Internal.Correction>  (280) 
0.0302

>  <Gold.PLP.Chemscore.Metal>  (280) 
0.0000

>  <Gold.PLP.Fitness>  (280) 
45.2440

>  <Gold.PLP.PLP>  (280) 
-34.0311

>  <Gold.PLP.ligand.clash>  (280) 
0.0000

>  <Gold.PLP.ligand.torsion>  (280) 
0.9683

>  <Gold.PLP.part.buried>  (280) 
-5.7461

>  <Gold.PLP.part.hbond>  (280) 
-6.7906

>  <Gold.PLP.part.metal>  (280) 
0.0000

>  <Gold.PLP.part.nonpolar>  (280) 
-20.6665

>  <Gold.PLP.part.repulsive>  (280) 
0.0765

>  <Gold.Protein.RotatedAtoms>  (280) 


>  <Gold.Protein.RotatedTorsions>  (280) 


>  <Gold.Protein.RotatedWaterAtoms>  (280) 


>  <Gold.Version>  (280) 
5.3.0

>  <PLP.Chemscore.CHOScore>  (280) 


>  <PLP.Chemscore.Hbond>  (280) 


>  <PLP.Chemscore.Internal.Correction>  (280) 


>  <PLP.Chemscore.Metal>  (280) 


>  <PLP.Fitness>  (280) 


>  <PLP.PLP>  (280) 


>  <PLP.ligand.clash>  (280) 


>  <PLP.ligand.torsion>  (280) 


>  <PLP.part.buried>  (280) 


>  <PLP.part.hbond>  (280) 


>  <PLP.part.metal>  (280) 


>  <PLP.part.nonpolar>  (280) 


>  <PLP.part.repulsive>  (280) 


>  <Version>  (280) 


$$$$
280|Compound_165|Compounds_3D_F|sdf|39|dock3|1
     RDKit          3D

 13 12  0  0  0  0  0  0  0  0999 V2000
  -10.4665  -18.5076    9.1813 O   0  0  0  0  0  0  0  0  0  0  0  0
   -9.7174  -19.0111   10.2887 C   0  0  0  0  0  0  0  0  0  0  0  0
  -10.2394  -18.3923   11.5926 C   0  0  0  0  0  0  0  0  0  0  0  0
   -9.9318  -16.9657   11.6013 N   0  0  0  0  0  0  0  0  0  0  0  0
   -8.6502  -16.4599   11.6324 C   0  0  0  0  0  0  0  0  0  0  0  0
   -7.6386  -17.1585   11.6323 O   0  0  0  0  0  0  0  0  0  0  0  0
   -8.6008  -14.9209   11.6573 C   0  0  0  0  0  0  0  0  0  0  0  0
   -9.1779  -14.3894   10.4110 N   0  0  0  0  0  0  0  0  0  0  0  0
   -7.1538  -14.4404   11.8455 C   0  0  0  0  0  0  0  0  0  0  0  0
   -7.0609  -12.9445   12.1637 C   0  0  0  0  0  0  0  0  0  0  0  0
   -5.6057  -12.5137   12.3420 C   0  0  0  0  0  0  0  0  0  0  0  0
   -5.5371  -11.2736   13.1036 N   0  0  0  0  0  0  0  0  0  0  0  0
  -11.7452  -18.5958   11.7472 C   0  0  0  0  0  0  0  0  0  0  0  0
  1  2  1  0
  2  3  1  0
  3  4  1  0
  3 13  1  0
  4  5  1  0
  5  6  2  0
  5  7  1  0
  7  8  1  0
  7  9  1  0
  9 10  1  0
 10 11  1  0
 11 12  1  0
M  END
>  <Gold.Gold.Protein.RotatedWaterAtoms>  (281) 


>  <Gold.Id.Protein>  (281) 


>  <Gold.PLP.Chemscore.CHOScore>  (281) 
0.0000

>  <Gold.PLP.Chemscore.Hbond>  (281) 
2.7040

>  <Gold.PLP.Chemscore.Internal.Correction>  (281) 
0.0302

>  <Gold.PLP.Chemscore.Metal>  (281) 
0.0000

>  <Gold.PLP.Fitness>  (281) 
41.7665

>  <Gold.PLP.PLP>  (281) 
-34.1838

>  <Gold.PLP.ligand.clash>  (281) 
0.0000

>  <Gold.PLP.ligand.torsion>  (281) 
0.2798

>  <Gold.PLP.part.buried>  (281) 
-5.8767

>  <Gold.PLP.part.hbond>  (281) 
-6.7005

>  <Gold.PLP.part.metal>  (281) 
0.0000

>  <Gold.PLP.part.nonpolar>  (281) 
-22.1834

>  <Gold.PLP.part.repulsive>  (281) 
0.1335

>  <Gold.Protein.RotatedAtoms>  (281) 


>  <Gold.Protein.RotatedTorsions>  (281) 


>  <Gold.Protein.RotatedWaterAtoms>  (281) 


>  <Gold.Version>  (281) 
5.3.0

>  <PLP.Chemscore.CHOScore>  (281) 


>  <PLP.Chemscore.Hbond>  (281) 


>  <PLP.Chemscore.Internal.Correction>  (281) 


>  <PLP.Chemscore.Metal>  (281) 


>  <PLP.Fitness>  (281) 


>  <PLP.PLP>  (281) 


>  <PLP.ligand.clash>  (281) 


>  <PLP.ligand.torsion>  (281) 


>  <PLP.part.buried>  (281) 


>  <PLP.part.hbond>  (281) 


>  <PLP.part.metal>  (281) 


>  <PLP.part.nonpolar>  (281) 


>  <PLP.part.repulsive>  (281) 


>  <Version>  (281) 


$$$$
281|Compound_165|Compounds_3D_F|sdf|39|dock4|1
     RDKit          3D

 13 12  0  0  0  0  0  0  0  0999 V2000
  -11.3458  -17.7996   11.3869 O   0  0  0  0  0  0  0  0  0  0  0  0
  -10.0123  -18.3119   11.3802 C   0  0  0  0  0  0  0  0  0  0  0  0
   -9.0547  -17.2589   10.8060 C   0  0  0  0  0  0  0  0  0  0  0  0
   -9.1803  -16.0269   11.5782 N   0  0  0  0  0  0  0  0  0  0  0  0
   -8.3582  -14.9334   11.4126 C   0  0  0  0  0  0  0  0  0  0  0  0
   -7.4529  -14.8772   10.5827 O   0  0  0  0  0  0  0  0  0  0  0  0
   -8.6881  -13.7704   12.3667 C   0  0  0  0  0  0  0  0  0  0  0  0
  -10.0119  -13.9911   12.9729 N   0  0  0  0  0  0  0  0  0  0  0  0
   -8.6428  -12.4347   11.6090 C   0  0  0  0  0  0  0  0  0  0  0  0
   -7.3770  -11.6246   11.9079 C   0  0  0  0  0  0  0  0  0  0  0  0
   -7.6469  -10.1255   11.7863 C   0  0  0  0  0  0  0  0  0  0  0  0
   -8.4944   -9.8582   10.6317 N   0  0  0  0  0  0  0  0  0  0  0  0
   -7.6058  -17.7412   10.8370 C   0  0  0  0  0  0  0  0  0  0  0  0
  1  2  1  0
  2  3  1  0
  3  4  1  0
  3 13  1  0
  4  5  1  0
  5  6  2  0
  5  7  1  0
  7  8  1  0
  7  9  1  0
  9 10  1  0
 10 11  1  0
 11 12  1  0
M  END
>  <Gold.Gold.Protein.RotatedWaterAtoms>  (282) 


>  <Gold.Id.Protein>  (282) 


>  <Gold.PLP.Chemscore.CHOScore>  (282) 
0.0000

>  <Gold.PLP.Chemscore.Hbond>  (282) 
3.1920

>  <Gold.PLP.Chemscore.Internal.Correction>  (282) 
0.0302

>  <Gold.PLP.Chemscore.Metal>  (282) 
0.0000

>  <Gold.PLP.Fitness>  (282) 
48.2814

>  <Gold.PLP.PLP>  (282) 
-41.4649

>  <Gold.PLP.ligand.clash>  (282) 
0.0000

>  <Gold.PLP.ligand.torsion>  (282) 
1.3949

>  <Gold.PLP.part.buried>  (282) 
-8.8331

>  <Gold.PLP.part.hbond>  (282) 
-8.3592

>  <Gold.PLP.part.metal>  (282) 
0.0000

>  <Gold.PLP.part.nonpolar>  (282) 
-25.9000

>  <Gold.PLP.part.repulsive>  (282) 
0.1544

>  <Gold.Protein.RotatedAtoms>  (282) 


>  <Gold.Protein.RotatedTorsions>  (282) 


>  <Gold.Protein.RotatedWaterAtoms>  (282) 


>  <Gold.Version>  (282) 
5.3.0

>  <PLP.Chemscore.CHOScore>  (282) 


>  <PLP.Chemscore.Hbond>  (282) 


>  <PLP.Chemscore.Internal.Correction>  (282) 


>  <PLP.Chemscore.Metal>  (282) 


>  <PLP.Fitness>  (282) 


>  <PLP.PLP>  (282) 


>  <PLP.ligand.clash>  (282) 


>  <PLP.ligand.torsion>  (282) 


>  <PLP.part.buried>  (282) 


>  <PLP.part.hbond>  (282) 


>  <PLP.part.metal>  (282) 


>  <PLP.part.nonpolar>  (282) 


>  <PLP.part.repulsive>  (282) 


>  <Version>  (282) 


$$$$
282|Compound_165|Compounds_3D_F|sdf|39|dock5|1
     RDKit          3D

 13 12  0  0  0  0  0  0  0  0999 V2000
  -12.1904  -17.8427   12.4854 O   0  0  0  0  0  0  0  0  0  0  0  0
  -11.9109  -18.4684   11.2319 C   0  0  0  0  0  0  0  0  0  0  0  0
  -10.4045  -18.4048   10.9447 C   0  0  0  0  0  0  0  0  0  0  0  0
   -9.8736  -17.1443   11.4537 N   0  0  0  0  0  0  0  0  0  0  0  0
   -8.5294  -16.8445   11.5018 C   0  0  0  0  0  0  0  0  0  0  0  0
   -7.6453  -17.5981   11.0996 O   0  0  0  0  0  0  0  0  0  0  0  0
   -8.2335  -15.4580   12.1033 C   0  0  0  0  0  0  0  0  0  0  0  0
   -9.4968  -14.8128   12.4986 N   0  0  0  0  0  0  0  0  0  0  0  0
   -7.4648  -14.5948   11.0912 C   0  0  0  0  0  0  0  0  0  0  0  0
   -6.7870  -13.3824   11.7380 C   0  0  0  0  0  0  0  0  0  0  0  0
   -5.6386  -13.8194   12.6464 C   0  0  0  0  0  0  0  0  0  0  0  0
   -4.9009  -12.6560   13.1208 N   0  0  0  0  0  0  0  0  0  0  0  0
   -9.6607  -19.5742   11.5867 C   0  0  0  0  0  0  0  0  0  0  0  0
  1  2  1  0
  2  3  1  0
  3  4  1  0
  3 13  1  0
  4  5  1  0
  5  6  2  0
  5  7  1  0
  7  8  1  0
  7  9  1  0
  9 10  1  0
 10 11  1  0
 11 12  1  0
M  END
>  <Gold.Gold.Protein.RotatedWaterAtoms>  (283) 


>  <Gold.Id.Protein>  (283) 


>  <Gold.PLP.Chemscore.CHOScore>  (283) 
0.0000

>  <Gold.PLP.Chemscore.Hbond>  (283) 
4.6720

>  <Gold.PLP.Chemscore.Internal.Correction>  (283) 
0.0302

>  <Gold.PLP.Chemscore.Metal>  (283) 
0.0000

>  <Gold.PLP.Fitness>  (283) 
47.4464

>  <Gold.PLP.PLP>  (283) 
-34.4520

>  <Gold.PLP.ligand.clash>  (283) 
0.0000

>  <Gold.PLP.ligand.torsion>  (283) 
0.5259

>  <Gold.PLP.part.buried>  (283) 
-6.9460

>  <Gold.PLP.part.hbond>  (283) 
-7.2964

>  <Gold.PLP.part.metal>  (283) 
0.0000

>  <Gold.PLP.part.nonpolar>  (283) 
-20.6402

>  <Gold.PLP.part.repulsive>  (283) 
0.0828

>  <Gold.Protein.RotatedAtoms>  (283) 


>  <Gold.Protein.RotatedTorsions>  (283) 


>  <Gold.Protein.RotatedWaterAtoms>  (283) 


>  <Gold.Version>  (283) 
5.3.0

>  <PLP.Chemscore.CHOScore>  (283) 


>  <PLP.Chemscore.Hbond>  (283) 


>  <PLP.Chemscore.Internal.Correction>  (283) 


>  <PLP.Chemscore.Metal>  (283) 


>  <PLP.Fitness>  (283) 


>  <PLP.PLP>  (283) 


>  <PLP.ligand.clash>  (283) 


>  <PLP.ligand.torsion>  (283) 


>  <PLP.part.buried>  (283) 


>  <PLP.part.hbond>  (283) 


>  <PLP.part.metal>  (283) 


>  <PLP.part.nonpolar>  (283) 


>  <PLP.part.repulsive>  (283) 


>  <Version>  (283) 


$$$$
283|Compound_165|Compounds_3D_F|sdf|39|dock6|1
     RDKit          3D

 13 12  0  0  0  0  0  0  0  0999 V2000
  -11.9269  -17.6748    9.5672 O   0  0  0  0  0  0  0  0  0  0  0  0
  -11.3776  -18.4845   10.6081 C   0  0  0  0  0  0  0  0  0  0  0  0
   -9.8476  -18.3625   10.6078 C   0  0  0  0  0  0  0  0  0  0  0  0
   -9.4610  -17.1946   11.3929 N   0  0  0  0  0  0  0  0  0  0  0  0
   -8.6766  -16.1715   10.9062 C   0  0  0  0  0  0  0  0  0  0  0  0
   -8.2439  -16.1284    9.7563 O   0  0  0  0  0  0  0  0  0  0  0  0
   -8.3970  -15.0687   11.9442 C   0  0  0  0  0  0  0  0  0  0  0  0
   -9.6710  -14.5742   12.4928 N   0  0  0  0  0  0  0  0  0  0  0  0
   -7.5920  -13.9287   11.3019 C   0  0  0  0  0  0  0  0  0  0  0  0
   -6.9211  -13.0188   12.3362 C   0  0  0  0  0  0  0  0  0  0  0  0
   -5.5306  -13.5380   12.6996 C   0  0  0  0  0  0  0  0  0  0  0  0
   -4.7706  -12.5033   13.3883 N   0  0  0  0  0  0  0  0  0  0  0  0
   -9.1847  -19.6126   11.1827 C   0  0  0  0  0  0  0  0  0  0  0  0
  1  2  1  0
  2  3  1  0
  3  4  1  0
  3 13  1  0
  4  5  1  0
  5  6  2  0
  5  7  1  0
  7  8  1  0
  7  9  1  0
  9 10  1  0
 10 11  1  0
 11 12  1  0
M  END
>  <Gold.Gold.Protein.RotatedWaterAtoms>  (284) 


>  <Gold.Id.Protein>  (284) 


>  <Gold.PLP.Chemscore.CHOScore>  (284) 
0.0000

>  <Gold.PLP.Chemscore.Hbond>  (284) 
5.0000

>  <Gold.PLP.Chemscore.Internal.Correction>  (284) 
0.0302

>  <Gold.PLP.Chemscore.Metal>  (284) 
0.0000

>  <Gold.PLP.Fitness>  (284) 
47.1494

>  <Gold.PLP.PLP>  (284) 
-33.6035

>  <Gold.PLP.ligand.clash>  (284) 
0.0000

>  <Gold.PLP.ligand.torsion>  (284) 
0.7421

>  <Gold.PLP.part.buried>  (284) 
-6.8505

>  <Gold.PLP.part.hbond>  (284) 
-6.7097

>  <Gold.PLP.part.metal>  (284) 
0.0000

>  <Gold.PLP.part.nonpolar>  (284) 
-20.8197

>  <Gold.PLP.part.repulsive>  (284) 
0.1193

>  <Gold.Protein.RotatedAtoms>  (284) 


>  <Gold.Protein.RotatedTorsions>  (284) 


>  <Gold.Protein.RotatedWaterAtoms>  (284) 


>  <Gold.Version>  (284) 
5.3.0

>  <PLP.Chemscore.CHOScore>  (284) 


>  <PLP.Chemscore.Hbond>  (284) 


>  <PLP.Chemscore.Internal.Correction>  (284) 


>  <PLP.Chemscore.Metal>  (284) 


>  <PLP.Fitness>  (284) 


>  <PLP.PLP>  (284) 


>  <PLP.ligand.clash>  (284) 


>  <PLP.ligand.torsion>  (284) 


>  <PLP.part.buried>  (284) 


>  <PLP.part.hbond>  (284) 


>  <PLP.part.metal>  (284) 


>  <PLP.part.nonpolar>  (284) 


>  <PLP.part.repulsive>  (284) 


>  <Version>  (284) 


$$$$
284|Compound_165|Compounds_3D_F|sdf|39|dock7|1
     RDKit          3D

 13 12  0  0  0  0  0  0  0  0999 V2000
  -12.0138  -17.6232   12.4994 O   0  0  0  0  0  0  0  0  0  0  0  0
  -11.5376  -18.6964   11.6856 C   0  0  0  0  0  0  0  0  0  0  0  0
  -10.3163  -18.2338   10.8794 C   0  0  0  0  0  0  0  0  0  0  0  0
   -9.7169  -17.0788   11.5401 N   0  0  0  0  0  0  0  0  0  0  0  0
   -8.7265  -16.3040   10.9763 C   0  0  0  0  0  0  0  0  0  0  0  0
   -8.2657  -16.4936    9.8524 O   0  0  0  0  0  0  0  0  0  0  0  0
   -8.2514  -15.1590   11.8901 C   0  0  0  0  0  0  0  0  0  0  0  0
   -9.4197  -14.4576   12.4486 N   0  0  0  0  0  0  0  0  0  0  0  0
   -7.3504  -14.1938   11.1048 C   0  0  0  0  0  0  0  0  0  0  0  0
   -6.7409  -13.0992   11.9868 C   0  0  0  0  0  0  0  0  0  0  0  0
   -5.5022  -13.6145   12.7185 C   0  0  0  0  0  0  0  0  0  0  0  0
   -4.7636  -12.5030   13.3030 N   0  0  0  0  0  0  0  0  0  0  0  0
   -9.2786  -19.3464   10.7444 C   0  0  0  0  0  0  0  0  0  0  0  0
  1  2  1  0
  2  3  1  0
  3  4  1  0
  3 13  1  0
  4  5  1  0
  5  6  2  0
  5  7  1  0
  7  8  1  0
  7  9  1  0
  9 10  1  0
 10 11  1  0
 11 12  1  0
M  END
>  <Gold.Gold.Protein.RotatedWaterAtoms>  (285) 


>  <Gold.Id.Protein>  (285) 


>  <Gold.PLP.Chemscore.CHOScore>  (285) 
0.0000

>  <Gold.PLP.Chemscore.Hbond>  (285) 
5.7113

>  <Gold.PLP.Chemscore.Internal.Correction>  (285) 
0.0302

>  <Gold.PLP.Chemscore.Metal>  (285) 
0.0000

>  <Gold.PLP.Fitness>  (285) 
50.7719

>  <Gold.PLP.PLP>  (285) 
-35.5986

>  <Gold.PLP.ligand.clash>  (285) 
0.0000

>  <Gold.PLP.ligand.torsion>  (285) 
0.9953

>  <Gold.PLP.part.buried>  (285) 
-6.3086

>  <Gold.PLP.part.hbond>  (285) 
-8.0000

>  <Gold.PLP.part.metal>  (285) 
0.0000

>  <Gold.PLP.part.nonpolar>  (285) 
-20.8787

>  <Gold.PLP.part.repulsive>  (285) 
0.1312

>  <Gold.Protein.RotatedAtoms>  (285) 


>  <Gold.Protein.RotatedTorsions>  (285) 


>  <Gold.Protein.RotatedWaterAtoms>  (285) 


>  <Gold.Version>  (285) 
5.3.0

>  <PLP.Chemscore.CHOScore>  (285) 


>  <PLP.Chemscore.Hbond>  (285) 


>  <PLP.Chemscore.Internal.Correction>  (285) 


>  <PLP.Chemscore.Metal>  (285) 


>  <PLP.Fitness>  (285) 


>  <PLP.PLP>  (285) 


>  <PLP.ligand.clash>  (285) 


>  <PLP.ligand.torsion>  (285) 


>  <PLP.part.buried>  (285) 


>  <PLP.part.hbond>  (285) 


>  <PLP.part.metal>  (285) 


>  <PLP.part.nonpolar>  (285) 


>  <PLP.part.repulsive>  (285) 


>  <Version>  (285) 


$$$$
285|Compound_165|Compounds_3D_F|sdf|39|dock8|1
     RDKit          3D

 13 12  0  0  0  0  0  0  0  0999 V2000
  -11.9348  -18.0930   12.2940 O   0  0  0  0  0  0  0  0  0  0  0  0
  -10.7803  -18.8334   11.8943 C   0  0  0  0  0  0  0  0  0  0  0  0
   -9.9267  -17.9881   10.9391 C   0  0  0  0  0  0  0  0  0  0  0  0
   -9.4877  -16.7809   11.6317 N   0  0  0  0  0  0  0  0  0  0  0  0
   -8.7702  -15.7711   11.0280 C   0  0  0  0  0  0  0  0  0  0  0  0
   -8.4485  -15.7750    9.8414 O   0  0  0  0  0  0  0  0  0  0  0  0
   -8.4127  -14.6187   11.9850 C   0  0  0  0  0  0  0  0  0  0  0  0
   -9.6483  -14.0033   12.4980 N   0  0  0  0  0  0  0  0  0  0  0  0
   -7.5376  -13.5828   11.2630 C   0  0  0  0  0  0  0  0  0  0  0  0
   -6.7730  -12.6732   12.2303 C   0  0  0  0  0  0  0  0  0  0  0  0
   -5.5396  -13.3829   12.7872 C   0  0  0  0  0  0  0  0  0  0  0  0
   -4.6246  -12.4146   13.3771 N   0  0  0  0  0  0  0  0  0  0  0  0
   -8.7114  -18.7645   10.4360 C   0  0  0  0  0  0  0  0  0  0  0  0
  1  2  1  0
  2  3  1  0
  3  4  1  0
  3 13  1  0
  4  5  1  0
  5  6  2  0
  5  7  1  0
  7  8  1  0
  7  9  1  0
  9 10  1  0
 10 11  1  0
 11 12  1  0
M  END
>  <Gold.Gold.Protein.RotatedWaterAtoms>  (286) 


>  <Gold.Id.Protein>  (286) 


>  <Gold.PLP.Chemscore.CHOScore>  (286) 
0.0000

>  <Gold.PLP.Chemscore.Hbond>  (286) 
3.8000

>  <Gold.PLP.Chemscore.Internal.Correction>  (286) 
0.0302

>  <Gold.PLP.Chemscore.Metal>  (286) 
0.0000

>  <Gold.PLP.Fitness>  (286) 
47.4044

>  <Gold.PLP.PLP>  (286) 
-36.6504

>  <Gold.PLP.ligand.clash>  (286) 
0.0000

>  <Gold.PLP.ligand.torsion>  (286) 
0.3381

>  <Gold.PLP.part.buried>  (286) 
-6.9764

>  <Gold.PLP.part.hbond>  (286) 
-7.0843

>  <Gold.PLP.part.metal>  (286) 
0.0000

>  <Gold.PLP.part.nonpolar>  (286) 
-22.7963

>  <Gold.PLP.part.repulsive>  (286) 
0.1738

>  <Gold.Protein.RotatedAtoms>  (286) 


>  <Gold.Protein.RotatedTorsions>  (286) 


>  <Gold.Protein.RotatedWaterAtoms>  (286) 


>  <Gold.Version>  (286) 
5.3.0

>  <PLP.Chemscore.CHOScore>  (286) 


>  <PLP.Chemscore.Hbond>  (286) 


>  <PLP.Chemscore.Internal.Correction>  (286) 


>  <PLP.Chemscore.Metal>  (286) 


>  <PLP.Fitness>  (286) 


>  <PLP.PLP>  (286) 


>  <PLP.ligand.clash>  (286) 


>  <PLP.ligand.torsion>  (286) 


>  <PLP.part.buried>  (286) 


>  <PLP.part.hbond>  (286) 


>  <PLP.part.metal>  (286) 


>  <PLP.part.nonpolar>  (286) 


>  <PLP.part.repulsive>  (286) 


>  <Version>  (286) 


$$$$
286|Compound_165|Compounds_3D_F|sdf|39|dock9|1
     RDKit          3D

 13 12  0  0  0  0  0  0  0  0999 V2000
   -5.7212  -14.9932    8.6468 O   0  0  0  0  0  0  0  0  0  0  0  0
   -6.3162  -16.2307    9.0409 C   0  0  0  0  0  0  0  0  0  0  0  0
   -7.8383  -16.1561    8.8580 C   0  0  0  0  0  0  0  0  0  0  0  0
   -8.3669  -15.0769    9.6861 N   0  0  0  0  0  0  0  0  0  0  0  0
   -8.1496  -14.9777   11.0433 C   0  0  0  0  0  0  0  0  0  0  0  0
   -7.4703  -15.7744   11.6877 O   0  0  0  0  0  0  0  0  0  0  0  0
   -8.8356  -13.7572   11.6847 C   0  0  0  0  0  0  0  0  0  0  0  0
   -9.9999  -13.3638   10.8734 N   0  0  0  0  0  0  0  0  0  0  0  0
   -7.8369  -12.5974   11.8173 C   0  0  0  0  0  0  0  0  0  0  0  0
   -6.4867  -13.0386   12.3919 C   0  0  0  0  0  0  0  0  0  0  0  0
   -5.5289  -11.8535   12.5067 C   0  0  0  0  0  0  0  0  0  0  0  0
   -4.3980  -12.2003   13.3573 N   0  0  0  0  0  0  0  0  0  0  0  0
   -8.2172  -15.9183    7.3977 C   0  0  0  0  0  0  0  0  0  0  0  0
  1  2  1  0
  2  3  1  0
  3  4  1  0
  3 13  1  0
  4  5  1  0
  5  6  2  0
  5  7  1  0
  7  8  1  0
  7  9  1  0
  9 10  1  0
 10 11  1  0
 11 12  1  0
M  END
>  <Gold.Gold.Protein.RotatedWaterAtoms>  (287) 


>  <Gold.Id.Protein>  (287) 


>  <Gold.PLP.Chemscore.CHOScore>  (287) 
0.0000

>  <Gold.PLP.Chemscore.Hbond>  (287) 
5.9590

>  <Gold.PLP.Chemscore.Internal.Correction>  (287) 
0.0302

>  <Gold.PLP.Chemscore.Metal>  (287) 
0.0000

>  <Gold.PLP.Fitness>  (287) 
54.2104

>  <Gold.PLP.PLP>  (287) 
-37.9577

>  <Gold.PLP.ligand.clash>  (287) 
0.0000

>  <Gold.PLP.ligand.torsion>  (287) 
0.8272

>  <Gold.PLP.part.buried>  (287) 
-6.9376

>  <Gold.PLP.part.hbond>  (287) 
-7.9576

>  <Gold.PLP.part.metal>  (287) 
0.0000

>  <Gold.PLP.part.nonpolar>  (287) 
-24.0198

>  <Gold.PLP.part.repulsive>  (287) 
0.1317

>  <Gold.Protein.RotatedAtoms>  (287) 


>  <Gold.Protein.RotatedTorsions>  (287) 


>  <Gold.Protein.RotatedWaterAtoms>  (287) 


>  <Gold.Version>  (287) 
5.3.0

>  <PLP.Chemscore.CHOScore>  (287) 


>  <PLP.Chemscore.Hbond>  (287) 


>  <PLP.Chemscore.Internal.Correction>  (287) 


>  <PLP.Chemscore.Metal>  (287) 


>  <PLP.Fitness>  (287) 


>  <PLP.PLP>  (287) 


>  <PLP.ligand.clash>  (287) 


>  <PLP.ligand.torsion>  (287) 


>  <PLP.part.buried>  (287) 


>  <PLP.part.hbond>  (287) 


>  <PLP.part.metal>  (287) 


>  <PLP.part.nonpolar>  (287) 


>  <PLP.part.repulsive>  (287) 


>  <Version>  (287) 


$$$$
287|Compound_171|Compounds_3D_F|sdf|40|dock1|1
     RDKit          3D

 13 12  0  0  0  0  0  0  0  0999 V2000
   -4.6021  -12.0477   12.6326 N   0  0  0  0  0  0  0  0  0  0  0  0
   -5.7321  -12.9646   12.6610 C   0  0  0  0  0  0  0  0  0  0  0  0
   -6.9882  -12.2614   12.1485 C   0  0  0  0  0  0  0  0  0  0  0  0
   -7.9238  -13.2544   11.4562 C   0  0  0  0  0  0  0  0  0  0  0  0
   -8.5546  -14.2699   12.4186 C   0  0  0  0  0  0  0  0  0  0  0  0
  -10.0220  -14.1119   12.5377 N   0  0  0  0  0  0  0  0  0  0  0  0
   -8.2353  -15.7105   11.9744 C   0  0  0  0  0  0  0  0  0  0  0  0
   -7.0977  -16.1686   11.9197 O   0  0  0  0  0  0  0  0  0  0  0  0
   -9.3720  -16.4462   11.7121 N   0  0  0  0  0  0  0  0  0  0  0  0
   -9.3512  -17.8434   11.3403 C   0  0  0  0  0  0  0  0  0  0  0  0
  -10.6220  -18.5794   11.7814 C   0  0  0  0  0  0  0  0  0  0  0  0
  -11.6084  -17.6327   12.3136 N   0  0  0  0  0  0  0  0  0  0  0  0
  -12.9613  -18.1522   12.1608 C   0  0  0  0  0  0  0  0  0  0  0  0
  1  2  1  0
  2  3  1  0
  3  4  1  0
  4  5  1  0
  5  6  1  0
  5  7  1  0
  7  8  2  0
  7  9  1  0
  9 10  1  0
 10 11  1  0
 11 12  1  0
 12 13  1  0
M  END
>  <Gold.Gold.Protein.RotatedWaterAtoms>  (288) 


>  <Gold.Id.Protein>  (288) 


>  <Gold.PLP.Chemscore.CHOScore>  (288) 
0.0000

>  <Gold.PLP.Chemscore.Hbond>  (288) 
5.7716

>  <Gold.PLP.Chemscore.Internal.Correction>  (288) 
0.1750

>  <Gold.PLP.Chemscore.Metal>  (288) 
0.0000

>  <Gold.PLP.Fitness>  (288) 
53.0616

>  <Gold.PLP.PLP>  (288) 
-38.9514

>  <Gold.PLP.ligand.clash>  (288) 
0.0000

>  <Gold.PLP.ligand.torsion>  (288) 
1.6898

>  <Gold.PLP.part.buried>  (288) 
-7.3470

>  <Gold.PLP.part.hbond>  (288) 
-7.3633

>  <Gold.PLP.part.metal>  (288) 
0.0000

>  <Gold.PLP.part.nonpolar>  (288) 
-25.2440

>  <Gold.PLP.part.repulsive>  (288) 
0.1466

>  <Gold.Protein.RotatedAtoms>  (288) 


>  <Gold.Protein.RotatedTorsions>  (288) 


>  <Gold.Protein.RotatedWaterAtoms>  (288) 


>  <Gold.Version>  (288) 
5.3.0

>  <PLP.Chemscore.CHOScore>  (288) 


>  <PLP.Chemscore.Hbond>  (288) 


>  <PLP.Chemscore.Internal.Correction>  (288) 


>  <PLP.Chemscore.Metal>  (288) 


>  <PLP.Fitness>  (288) 


>  <PLP.PLP>  (288) 


>  <PLP.ligand.clash>  (288) 


>  <PLP.ligand.torsion>  (288) 


>  <PLP.part.buried>  (288) 


>  <PLP.part.hbond>  (288) 


>  <PLP.part.metal>  (288) 


>  <PLP.part.nonpolar>  (288) 


>  <PLP.part.repulsive>  (288) 


>  <Version>  (288) 


$$$$
288|Compound_171|Compounds_3D_F|sdf|40|dock2|1
     RDKit          3D

 13 12  0  0  0  0  0  0  0  0999 V2000
   -4.4303  -12.2023   13.4040 N   0  0  0  0  0  0  0  0  0  0  0  0
   -5.3971  -12.2268   12.3163 C   0  0  0  0  0  0  0  0  0  0  0  0
   -6.4159  -13.3418   12.5483 C   0  0  0  0  0  0  0  0  0  0  0  0
   -7.5909  -13.2163   11.5764 C   0  0  0  0  0  0  0  0  0  0  0  0
   -8.7459  -14.1770   11.8895 C   0  0  0  0  0  0  0  0  0  0  0  0
   -9.9989  -13.8149   11.1885 N   0  0  0  0  0  0  0  0  0  0  0  0
   -8.3627  -15.6245   11.5251 C   0  0  0  0  0  0  0  0  0  0  0  0
   -7.2209  -15.9743   11.2406 O   0  0  0  0  0  0  0  0  0  0  0  0
   -9.4296  -16.4931   11.6214 N   0  0  0  0  0  0  0  0  0  0  0  0
   -9.3231  -17.9174   11.3953 C   0  0  0  0  0  0  0  0  0  0  0  0
  -10.5618  -18.6762   11.8863 C   0  0  0  0  0  0  0  0  0  0  0  0
  -11.7881  -18.0177   11.4224 N   0  0  0  0  0  0  0  0  0  0  0  0
  -12.1644  -18.4951   10.0981 C   0  0  0  0  0  0  0  0  0  0  0  0
  1  2  1  0
  2  3  1  0
  3  4  1  0
  4  5  1  0
  5  6  1  0
  5  7  1  0
  7  8  2  0
  7  9  1  0
  9 10  1  0
 10 11  1  0
 11 12  1  0
 12 13  1  0
M  END
>  <Gold.Gold.Protein.RotatedWaterAtoms>  (289) 


>  <Gold.Id.Protein>  (289) 


>  <Gold.PLP.Chemscore.CHOScore>  (289) 
0.0000

>  <Gold.PLP.Chemscore.Hbond>  (289) 
4.0773

>  <Gold.PLP.Chemscore.Internal.Correction>  (289) 
0.1750

>  <Gold.PLP.Chemscore.Metal>  (289) 
0.0000

>  <Gold.PLP.Fitness>  (289) 
48.0277

>  <Gold.PLP.PLP>  (289) 
-36.9930

>  <Gold.PLP.ligand.clash>  (289) 
0.0000

>  <Gold.PLP.ligand.torsion>  (289) 
0.6860

>  <Gold.PLP.part.buried>  (289) 
-7.9306

>  <Gold.PLP.part.hbond>  (289) 
-5.7252

>  <Gold.PLP.part.metal>  (289) 
0.0000

>  <Gold.PLP.part.nonpolar>  (289) 
-24.1416

>  <Gold.PLP.part.repulsive>  (289) 
0.1208

>  <Gold.Protein.RotatedAtoms>  (289) 


>  <Gold.Protein.RotatedTorsions>  (289) 


>  <Gold.Protein.RotatedWaterAtoms>  (289) 


>  <Gold.Version>  (289) 
5.3.0

>  <PLP.Chemscore.CHOScore>  (289) 


>  <PLP.Chemscore.Hbond>  (289) 


>  <PLP.Chemscore.Internal.Correction>  (289) 


>  <PLP.Chemscore.Metal>  (289) 


>  <PLP.Fitness>  (289) 


>  <PLP.PLP>  (289) 


>  <PLP.ligand.clash>  (289) 


>  <PLP.ligand.torsion>  (289) 


>  <PLP.part.buried>  (289) 


>  <PLP.part.hbond>  (289) 


>  <PLP.part.metal>  (289) 


>  <PLP.part.nonpolar>  (289) 


>  <PLP.part.repulsive>  (289) 


>  <Version>  (289) 


$$$$
289|Compound_171|Compounds_3D_F|sdf|40|dock3|1
     RDKit          3D

 13 12  0  0  0  0  0  0  0  0999 V2000
   -4.6247  -12.7141   13.3710 N   0  0  0  0  0  0  0  0  0  0  0  0
   -5.6544  -13.3915   12.5969 C   0  0  0  0  0  0  0  0  0  0  0  0
   -6.7574  -12.4041   12.2183 C   0  0  0  0  0  0  0  0  0  0  0  0
   -7.9141  -13.1219   11.5199 C   0  0  0  0  0  0  0  0  0  0  0  0
   -8.5992  -14.1747   12.4016 C   0  0  0  0  0  0  0  0  0  0  0  0
  -10.0638  -13.9786   12.4957 N   0  0  0  0  0  0  0  0  0  0  0  0
   -8.3116  -15.5944   11.8756 C   0  0  0  0  0  0  0  0  0  0  0  0
   -7.1883  -16.0871   11.8281 O   0  0  0  0  0  0  0  0  0  0  0  0
   -9.4620  -16.2721   11.5297 N   0  0  0  0  0  0  0  0  0  0  0  0
   -9.4736  -17.6427   11.0690 C   0  0  0  0  0  0  0  0  0  0  0  0
  -10.4541  -18.5130   11.8645 C   0  0  0  0  0  0  0  0  0  0  0  0
  -11.5729  -17.7058   12.3637 N   0  0  0  0  0  0  0  0  0  0  0  0
  -12.8480  -18.2619   11.9298 C   0  0  0  0  0  0  0  0  0  0  0  0
  1  2  1  0
  2  3  1  0
  3  4  1  0
  4  5  1  0
  5  6  1  0
  5  7  1  0
  7  8  2  0
  7  9  1  0
  9 10  1  0
 10 11  1  0
 11 12  1  0
 12 13  1  0
M  END
>  <Gold.Gold.Protein.RotatedWaterAtoms>  (290) 


>  <Gold.Id.Protein>  (290) 


>  <Gold.PLP.Chemscore.CHOScore>  (290) 
0.0000

>  <Gold.PLP.Chemscore.Hbond>  (290) 
4.9920

>  <Gold.PLP.Chemscore.Internal.Correction>  (290) 
0.1584

>  <Gold.PLP.Chemscore.Metal>  (290) 
0.0000

>  <Gold.PLP.Fitness>  (290) 
52.7299

>  <Gold.PLP.PLP>  (290) 
-40.3339

>  <Gold.PLP.ligand.clash>  (290) 
0.0000

>  <Gold.PLP.ligand.torsion>  (290) 
1.3692

>  <Gold.PLP.part.buried>  (290) 
-8.0700

>  <Gold.PLP.part.hbond>  (290) 
-8.0757

>  <Gold.PLP.part.metal>  (290) 
0.0000

>  <Gold.PLP.part.nonpolar>  (290) 
-25.1465

>  <Gold.PLP.part.repulsive>  (290) 
0.1273

>  <Gold.Protein.RotatedAtoms>  (290) 


>  <Gold.Protein.RotatedTorsions>  (290) 


>  <Gold.Protein.RotatedWaterAtoms>  (290) 


>  <Gold.Version>  (290) 
5.3.0

>  <PLP.Chemscore.CHOScore>  (290) 


>  <PLP.Chemscore.Hbond>  (290) 


>  <PLP.Chemscore.Internal.Correction>  (290) 


>  <PLP.Chemscore.Metal>  (290) 


>  <PLP.Fitness>  (290) 


>  <PLP.PLP>  (290) 


>  <PLP.ligand.clash>  (290) 


>  <PLP.ligand.torsion>  (290) 


>  <PLP.part.buried>  (290) 


>  <PLP.part.hbond>  (290) 


>  <PLP.part.metal>  (290) 


>  <PLP.part.nonpolar>  (290) 


>  <PLP.part.repulsive>  (290) 


>  <Version>  (290) 


$$$$
290|Compound_172|Compounds_3D_F|sdf|41|dock1|1
     RDKit          3D

 16 15  0  0  0  0  0  0  0  0999 V2000
   -9.8855  -20.7714    8.7242 O   0  0  0  0  0  0  0  0  0  0  0  0
   -9.6442  -19.4528    8.9198 C   0  0  0  0  0  0  0  0  0  0  0  0
   -8.7974  -18.8960    8.2357 O   0  0  0  0  0  0  0  0  0  0  0  0
  -10.4062  -18.8394   10.1068 C   0  0  0  0  0  0  0  0  0  0  0  0
   -9.9942  -17.4331   10.3372 N   0  0  0  0  0  0  0  0  0  0  0  0
   -8.7428  -17.0744   10.8063 C   0  0  0  0  0  0  0  0  0  0  0  0
   -7.8284  -17.8717   11.0074 O   0  0  0  0  0  0  0  0  0  0  0  0
   -8.5894  -15.5656   11.0718 C   0  0  0  0  0  0  0  0  0  0  0  0
   -8.6400  -14.8427    9.7914 N   0  0  0  0  0  0  0  0  0  0  0  0
   -7.2631  -15.3202   11.8055 C   0  0  0  0  0  0  0  0  0  0  0  0
   -6.9595  -13.8347   12.0283 C   0  0  0  0  0  0  0  0  0  0  0  0
   -5.6336  -13.6530   12.7701 C   0  0  0  0  0  0  0  0  0  0  0  0
   -4.6077  -14.5137   12.1954 N   0  0  0  0  0  0  0  0  0  0  0  0
  -10.1919  -19.6892   11.3688 C   0  0  0  0  0  0  0  0  0  0  0  0
  -11.9036  -18.8367    9.7051 C   0  0  0  0  0  0  0  0  0  0  0  0
  -12.7320  -18.2213   10.6829 O   0  0  0  0  0  0  0  0  0  0  0  0
  1  2  1  0
  2  3  2  0
  2  4  1  0
  4  5  1  0
  4 14  1  0
  4 15  1  0
  5  6  1  0
  6  7  2  0
  6  8  1  0
  8  9  1  0
  8 10  1  0
 10 11  1  0
 11 12  1  0
 12 13  1  0
 15 16  1  0
M  END
>  <Gold.Gold.Protein.RotatedWaterAtoms>  (291) 


>  <Gold.Id.Protein>  (291) 


>  <Gold.PLP.Chemscore.CHOScore>  (291) 
0.0000

>  <Gold.PLP.Chemscore.Hbond>  (291) 
3.7212

>  <Gold.PLP.Chemscore.Internal.Correction>  (291) 
0.3351

>  <Gold.PLP.Chemscore.Metal>  (291) 
0.0000

>  <Gold.PLP.Fitness>  (291) 
41.6027

>  <Gold.PLP.PLP>  (291) 
-30.8393

>  <Gold.PLP.ligand.clash>  (291) 
0.0000

>  <Gold.PLP.ligand.torsion>  (291) 
0.3676

>  <Gold.PLP.part.buried>  (291) 
-4.1521

>  <Gold.PLP.part.hbond>  (291) 
-5.7424

>  <Gold.PLP.part.metal>  (291) 
0.0000

>  <Gold.PLP.part.nonpolar>  (291) 
-20.0389

>  <Gold.PLP.part.repulsive>  (291) 
0.0293

>  <Gold.Protein.RotatedAtoms>  (291) 


>  <Gold.Protein.RotatedTorsions>  (291) 


>  <Gold.Protein.RotatedWaterAtoms>  (291) 


>  <Gold.Version>  (291) 
5.3.0

>  <PLP.Chemscore.CHOScore>  (291) 


>  <PLP.Chemscore.Hbond>  (291) 


>  <PLP.Chemscore.Internal.Correction>  (291) 


>  <PLP.Chemscore.Metal>  (291) 


>  <PLP.Fitness>  (291) 


>  <PLP.PLP>  (291) 


>  <PLP.ligand.clash>  (291) 


>  <PLP.ligand.torsion>  (291) 


>  <PLP.part.buried>  (291) 


>  <PLP.part.hbond>  (291) 


>  <PLP.part.metal>  (291) 


>  <PLP.part.nonpolar>  (291) 


>  <PLP.part.repulsive>  (291) 


>  <Version>  (291) 


$$$$
291|Compound_172|Compounds_3D_F|sdf|41|dock2|1
     RDKit          3D

 16 15  0  0  0  0  0  0  0  0999 V2000
   -8.7190  -16.2984    8.4138 O   0  0  0  0  0  0  0  0  0  0  0  0
   -8.8666  -17.5872    8.8040 C   0  0  0  0  0  0  0  0  0  0  0  0
   -8.7264  -18.4777    7.9778 O   0  0  0  0  0  0  0  0  0  0  0  0
   -9.3328  -17.7582   10.2597 C   0  0  0  0  0  0  0  0  0  0  0  0
   -9.4301  -16.4473   10.9472 N   0  0  0  0  0  0  0  0  0  0  0  0
   -8.3305  -15.7534   11.4207 C   0  0  0  0  0  0  0  0  0  0  0  0
   -7.1661  -16.1130   11.2556 O   0  0  0  0  0  0  0  0  0  0  0  0
   -8.6920  -14.4736   12.1964 C   0  0  0  0  0  0  0  0  0  0  0  0
  -10.0763  -14.0906   11.8773 N   0  0  0  0  0  0  0  0  0  0  0  0
   -7.6993  -13.3644   11.8200 C   0  0  0  0  0  0  0  0  0  0  0  0
   -6.2581  -13.6724   12.2403 C   0  0  0  0  0  0  0  0  0  0  0  0
   -5.4432  -12.3852   12.3826 C   0  0  0  0  0  0  0  0  0  0  0  0
   -4.5990  -12.4469   13.5689 N   0  0  0  0  0  0  0  0  0  0  0  0
   -8.3839  -18.7044   11.0113 C   0  0  0  0  0  0  0  0  0  0  0  0
  -10.7575  -18.3653   10.1895 C   0  0  0  0  0  0  0  0  0  0  0  0
  -11.5251  -18.0980   11.3558 O   0  0  0  0  0  0  0  0  0  0  0  0
  1  2  1  0
  2  3  2  0
  2  4  1  0
  4  5  1  0
  4 14  1  0
  4 15  1  0
  5  6  1  0
  6  7  2  0
  6  8  1  0
  8  9  1  0
  8 10  1  0
 10 11  1  0
 11 12  1  0
 12 13  1  0
 15 16  1  0
M  END
>  <Gold.Gold.Protein.RotatedWaterAtoms>  (292) 


>  <Gold.Id.Protein>  (292) 


>  <Gold.PLP.Chemscore.CHOScore>  (292) 
0.0000

>  <Gold.PLP.Chemscore.Hbond>  (292) 
4.4100

>  <Gold.PLP.Chemscore.Internal.Correction>  (292) 
0.2409

>  <Gold.PLP.Chemscore.Metal>  (292) 
0.0000

>  <Gold.PLP.Fitness>  (292) 
45.8843

>  <Gold.PLP.PLP>  (292) 
-35.7343

>  <Gold.PLP.ligand.clash>  (292) 
0.0000

>  <Gold.PLP.ligand.torsion>  (292) 
1.6604

>  <Gold.PLP.part.buried>  (292) 
-8.1048

>  <Gold.PLP.part.hbond>  (292) 
-6.0858

>  <Gold.PLP.part.metal>  (292) 
0.0000

>  <Gold.PLP.part.nonpolar>  (292) 
-22.9048

>  <Gold.PLP.part.repulsive>  (292) 
0.0339

>  <Gold.Protein.RotatedAtoms>  (292) 


>  <Gold.Protein.RotatedTorsions>  (292) 


>  <Gold.Protein.RotatedWaterAtoms>  (292) 


>  <Gold.Version>  (292) 
5.3.0

>  <PLP.Chemscore.CHOScore>  (292) 


>  <PLP.Chemscore.Hbond>  (292) 


>  <PLP.Chemscore.Internal.Correction>  (292) 


>  <PLP.Chemscore.Metal>  (292) 


>  <PLP.Fitness>  (292) 


>  <PLP.PLP>  (292) 


>  <PLP.ligand.clash>  (292) 


>  <PLP.ligand.torsion>  (292) 


>  <PLP.part.buried>  (292) 


>  <PLP.part.hbond>  (292) 


>  <PLP.part.metal>  (292) 


>  <PLP.part.nonpolar>  (292) 


>  <PLP.part.repulsive>  (292) 


>  <Version>  (292) 


$$$$
292|Compound_172|Compounds_3D_F|sdf|41|dock3|1
     RDKit          3D

 16 15  0  0  0  0  0  0  0  0999 V2000
  -13.2102  -18.1203   12.4884 O   0  0  0  0  0  0  0  0  0  0  0  0
  -12.3136  -19.1202   12.3107 C   0  0  0  0  0  0  0  0  0  0  0  0
  -12.4183  -20.1378   12.9805 O   0  0  0  0  0  0  0  0  0  0  0  0
  -11.1667  -18.7774   11.3449 C   0  0  0  0  0  0  0  0  0  0  0  0
  -10.3649  -17.6365   11.8508 N   0  0  0  0  0  0  0  0  0  0  0  0
   -9.3595  -17.0296   11.1190 C   0  0  0  0  0  0  0  0  0  0  0  0
   -9.0806  -17.3225    9.9577 O   0  0  0  0  0  0  0  0  0  0  0  0
   -8.5955  -15.9430   11.8974 C   0  0  0  0  0  0  0  0  0  0  0  0
   -9.5553  -14.9548   12.4144 N   0  0  0  0  0  0  0  0  0  0  0  0
   -7.5643  -15.2922   10.9644 C   0  0  0  0  0  0  0  0  0  0  0  0
   -6.8725  -14.0723   11.5823 C   0  0  0  0  0  0  0  0  0  0  0  0
   -5.7996  -14.5019   12.5852 C   0  0  0  0  0  0  0  0  0  0  0  0
   -4.5873  -14.9117   11.8880 N   0  0  0  0  0  0  0  0  0  0  0  0
  -11.7255  -18.4790    9.9450 C   0  0  0  0  0  0  0  0  0  0  0  0
  -10.2469  -20.0246   11.3049 C   0  0  0  0  0  0  0  0  0  0  0  0
  -10.8797  -21.1534   10.7164 O   0  0  0  0  0  0  0  0  0  0  0  0
  1  2  1  0
  2  3  2  0
  2  4  1  0
  4  5  1  0
  4 14  1  0
  4 15  1  0
  5  6  1  0
  6  7  2  0
  6  8  1  0
  8  9  1  0
  8 10  1  0
 10 11  1  0
 11 12  1  0
 12 13  1  0
 15 16  1  0
M  END
>  <Gold.Gold.Protein.RotatedWaterAtoms>  (293) 


>  <Gold.Id.Protein>  (293) 


>  <Gold.PLP.Chemscore.CHOScore>  (293) 
0.0000

>  <Gold.PLP.Chemscore.Hbond>  (293) 
3.7840

>  <Gold.PLP.Chemscore.Internal.Correction>  (293) 
0.2258

>  <Gold.PLP.Chemscore.Metal>  (293) 
0.0000

>  <Gold.PLP.Fitness>  (293) 
43.6342

>  <Gold.PLP.PLP>  (293) 
-32.9262

>  <Gold.PLP.ligand.clash>  (293) 
0.0000

>  <Gold.PLP.ligand.torsion>  (293) 
0.4349

>  <Gold.PLP.part.buried>  (293) 
-6.0825

>  <Gold.PLP.part.hbond>  (293) 
-5.1558

>  <Gold.PLP.part.metal>  (293) 
0.0000

>  <Gold.PLP.part.nonpolar>  (293) 
-21.2755

>  <Gold.PLP.part.repulsive>  (293) 
0.1963

>  <Gold.Protein.RotatedAtoms>  (293) 


>  <Gold.Protein.RotatedTorsions>  (293) 


>  <Gold.Protein.RotatedWaterAtoms>  (293) 


>  <Gold.Version>  (293) 
5.3.0

>  <PLP.Chemscore.CHOScore>  (293) 


>  <PLP.Chemscore.Hbond>  (293) 


>  <PLP.Chemscore.Internal.Correction>  (293) 


>  <PLP.Chemscore.Metal>  (293) 


>  <PLP.Fitness>  (293) 


>  <PLP.PLP>  (293) 


>  <PLP.ligand.clash>  (293) 


>  <PLP.ligand.torsion>  (293) 


>  <PLP.part.buried>  (293) 


>  <PLP.part.hbond>  (293) 


>  <PLP.part.metal>  (293) 


>  <PLP.part.nonpolar>  (293) 


>  <PLP.part.repulsive>  (293) 


>  <Version>  (293) 


$$$$
293|Compound_172|Compounds_3D_F|sdf|41|dock4|1
     RDKit          3D

 16 15  0  0  0  0  0  0  0  0999 V2000
   -8.8334  -19.1447    8.1183 O   0  0  0  0  0  0  0  0  0  0  0  0
   -8.8345  -18.0059    8.8520 C   0  0  0  0  0  0  0  0  0  0  0  0
   -8.1672  -17.0542    8.4724 O   0  0  0  0  0  0  0  0  0  0  0  0
   -9.6032  -18.1096   10.1802 C   0  0  0  0  0  0  0  0  0  0  0  0
   -9.5149  -16.8440   10.9490 N   0  0  0  0  0  0  0  0  0  0  0  0
   -8.3158  -16.2581   11.3143 C   0  0  0  0  0  0  0  0  0  0  0  0
   -7.2116  -16.6827   10.9784 O   0  0  0  0  0  0  0  0  0  0  0  0
   -8.4801  -15.0117   12.2031 C   0  0  0  0  0  0  0  0  0  0  0  0
   -9.9079  -14.8149   12.4991 N   0  0  0  0  0  0  0  0  0  0  0  0
   -7.8828  -13.7981   11.4766 C   0  0  0  0  0  0  0  0  0  0  0  0
   -7.0525  -12.8919   12.3919 C   0  0  0  0  0  0  0  0  0  0  0  0
   -5.6616  -13.4830   12.6310 C   0  0  0  0  0  0  0  0  0  0  0  0
   -4.7784  -12.4830   13.2170 N   0  0  0  0  0  0  0  0  0  0  0  0
   -9.0749  -19.2927   11.0060 C   0  0  0  0  0  0  0  0  0  0  0  0
  -11.0901  -18.3346    9.8035 C   0  0  0  0  0  0  0  0  0  0  0  0
  -11.9643  -18.1944   10.9158 O   0  0  0  0  0  0  0  0  0  0  0  0
  1  2  1  0
  2  3  2  0
  2  4  1  0
  4  5  1  0
  4 14  1  0
  4 15  1  0
  5  6  1  0
  6  7  2  0
  6  8  1  0
  8  9  1  0
  8 10  1  0
 10 11  1  0
 11 12  1  0
 12 13  1  0
 15 16  1  0
M  END
>  <Gold.Gold.Protein.RotatedWaterAtoms>  (294) 


>  <Gold.Id.Protein>  (294) 


>  <Gold.PLP.Chemscore.CHOScore>  (294) 
0.0000

>  <Gold.PLP.Chemscore.Hbond>  (294) 
4.9600

>  <Gold.PLP.Chemscore.Internal.Correction>  (294) 
0.2258

>  <Gold.PLP.Chemscore.Metal>  (294) 
0.0000

>  <Gold.PLP.Fitness>  (294) 
50.3370

>  <Gold.PLP.PLP>  (294) 
-37.1107

>  <Gold.PLP.ligand.clash>  (294) 
0.0000

>  <Gold.PLP.ligand.torsion>  (294) 
0.9397

>  <Gold.PLP.part.buried>  (294) 
-7.7627

>  <Gold.PLP.part.hbond>  (294) 
-8.1963

>  <Gold.PLP.part.metal>  (294) 
0.0000

>  <Gold.PLP.part.nonpolar>  (294) 
-22.5015

>  <Gold.PLP.part.repulsive>  (294) 
0.0520

>  <Gold.Protein.RotatedAtoms>  (294) 


>  <Gold.Protein.RotatedTorsions>  (294) 


>  <Gold.Protein.RotatedWaterAtoms>  (294) 


>  <Gold.Version>  (294) 
5.3.0

>  <PLP.Chemscore.CHOScore>  (294) 


>  <PLP.Chemscore.Hbond>  (294) 


>  <PLP.Chemscore.Internal.Correction>  (294) 


>  <PLP.Chemscore.Metal>  (294) 


>  <PLP.Fitness>  (294) 


>  <PLP.PLP>  (294) 


>  <PLP.ligand.clash>  (294) 


>  <PLP.ligand.torsion>  (294) 


>  <PLP.part.buried>  (294) 


>  <PLP.part.hbond>  (294) 


>  <PLP.part.metal>  (294) 


>  <PLP.part.nonpolar>  (294) 


>  <PLP.part.repulsive>  (294) 


>  <Version>  (294) 


$$$$
294|Compound_172|Compounds_3D_F|sdf|41|dock5|1
     RDKit          3D

 16 15  0  0  0  0  0  0  0  0999 V2000
  -10.5118  -16.7393    8.9987 O   0  0  0  0  0  0  0  0  0  0  0  0
  -10.1280  -17.9153    9.5509 C   0  0  0  0  0  0  0  0  0  0  0  0
  -10.0015  -18.8959    8.8315 O   0  0  0  0  0  0  0  0  0  0  0  0
  -10.0217  -17.8893   11.0851 C   0  0  0  0  0  0  0  0  0  0  0  0
   -9.8040  -16.5088   11.5823 N   0  0  0  0  0  0  0  0  0  0  0  0
   -8.5531  -15.9269   11.6883 C   0  0  0  0  0  0  0  0  0  0  0  0
   -7.5109  -16.4625   11.3148 O   0  0  0  0  0  0  0  0  0  0  0  0
   -8.5718  -14.5300   12.3353 C   0  0  0  0  0  0  0  0  0  0  0  0
   -9.9467  -14.2079   12.7484 N   0  0  0  0  0  0  0  0  0  0  0  0
   -8.0316  -13.5056   11.3272 C   0  0  0  0  0  0  0  0  0  0  0  0
   -6.9776  -12.5662   11.9233 C   0  0  0  0  0  0  0  0  0  0  0  0
   -5.7182  -13.3393   12.3201 C   0  0  0  0  0  0  0  0  0  0  0  0
   -4.8458  -12.5046   13.1362 N   0  0  0  0  0  0  0  0  0  0  0  0
   -8.8976  -18.8262   11.5533 C   0  0  0  0  0  0  0  0  0  0  0  0
  -11.3914  -18.3779   11.6223 C   0  0  0  0  0  0  0  0  0  0  0  0
  -11.6169  -19.7591   11.3720 O   0  0  0  0  0  0  0  0  0  0  0  0
  1  2  1  0
  2  3  2  0
  2  4  1  0
  4  5  1  0
  4 14  1  0
  4 15  1  0
  5  6  1  0
  6  7  2  0
  6  8  1  0
  8  9  1  0
  8 10  1  0
 10 11  1  0
 11 12  1  0
 12 13  1  0
 15 16  1  0
M  END
>  <Gold.Gold.Protein.RotatedWaterAtoms>  (295) 


>  <Gold.Id.Protein>  (295) 


>  <Gold.PLP.Chemscore.CHOScore>  (295) 
0.0000

>  <Gold.PLP.Chemscore.Hbond>  (295) 
4.4873

>  <Gold.PLP.Chemscore.Internal.Correction>  (295) 
0.1957

>  <Gold.PLP.Chemscore.Metal>  (295) 
0.0000

>  <Gold.PLP.Fitness>  (295) 
46.2178

>  <Gold.PLP.PLP>  (295) 
-37.0558

>  <Gold.PLP.ligand.clash>  (295) 
0.0000

>  <Gold.PLP.ligand.torsion>  (295) 
2.2477

>  <Gold.PLP.part.buried>  (295) 
-4.4766

>  <Gold.PLP.part.hbond>  (295) 
-8.5221

>  <Gold.PLP.part.metal>  (295) 
0.0000

>  <Gold.PLP.part.nonpolar>  (295) 
-24.6092

>  <Gold.PLP.part.repulsive>  (295) 
0.1266

>  <Gold.Protein.RotatedAtoms>  (295) 


>  <Gold.Protein.RotatedTorsions>  (295) 


>  <Gold.Protein.RotatedWaterAtoms>  (295) 


>  <Gold.Version>  (295) 
5.3.0

>  <PLP.Chemscore.CHOScore>  (295) 


>  <PLP.Chemscore.Hbond>  (295) 


>  <PLP.Chemscore.Internal.Correction>  (295) 


>  <PLP.Chemscore.Metal>  (295) 


>  <PLP.Fitness>  (295) 


>  <PLP.PLP>  (295) 


>  <PLP.ligand.clash>  (295) 


>  <PLP.ligand.torsion>  (295) 


>  <PLP.part.buried>  (295) 


>  <PLP.part.hbond>  (295) 


>  <PLP.part.metal>  (295) 


>  <PLP.part.nonpolar>  (295) 


>  <PLP.part.repulsive>  (295) 


>  <Version>  (295) 


$$$$
295|Compound_175|Compounds_3D_F|sdf|42|dock1|1
     RDKit          3D

 15 14  0  0  0  0  0  0  0  0999 V2000
  -10.6475  -19.8648   11.8446 O   0  0  0  0  0  0  0  0  0  0  0  0
  -10.7406  -18.5154   11.8903 C   0  0  0  0  0  0  0  0  0  0  0  0
  -11.7642  -17.9822   12.2894 O   0  0  0  0  0  0  0  0  0  0  0  0
   -9.4759  -17.8347   11.3823 C   0  0  0  0  0  0  0  0  0  0  0  0
   -9.5870  -16.3892   11.5516 N   0  0  0  0  0  0  0  0  0  0  0  0
   -8.4984  -15.5553   11.6788 C   0  0  0  0  0  0  0  0  0  0  0  0
   -7.3360  -15.9548   11.6878 O   0  0  0  0  0  0  0  0  0  0  0  0
   -8.8821  -14.0740   11.8501 C   0  0  0  0  0  0  0  0  0  0  0  0
  -10.0028  -13.7609   10.9534 N   0  0  0  0  0  0  0  0  0  0  0  0
   -7.6471  -13.1941   11.5966 C   0  0  0  0  0  0  0  0  0  0  0  0
   -6.6975  -13.1460   12.7983 C   0  0  0  0  0  0  0  0  0  0  0  0
   -5.3523  -12.5273   12.4194 C   0  0  0  0  0  0  0  0  0  0  0  0
   -4.5439  -12.3264   13.6155 N   0  0  0  0  0  0  0  0  0  0  0  0
   -9.2564  -18.1695    9.9081 C   0  0  0  0  0  0  0  0  0  0  0  0
   -9.1501  -19.5874    9.7487 O   0  0  0  0  0  0  0  0  0  0  0  0
  1  2  1  0
  2  3  2  0
  2  4  1  0
  4  5  1  0
  4 14  1  0
  5  6  1  0
  6  7  2  0
  6  8  1  0
  8  9  1  0
  8 10  1  0
 10 11  1  0
 11 12  1  0
 12 13  1  0
 14 15  1  0
M  END
>  <Gold.Gold.Protein.RotatedWaterAtoms>  (296) 


>  <Gold.Id.Protein>  (296) 


>  <Gold.PLP.Chemscore.CHOScore>  (296) 
0.0000

>  <Gold.PLP.Chemscore.Hbond>  (296) 
4.7168

>  <Gold.PLP.Chemscore.Internal.Correction>  (296) 
0.2068

>  <Gold.PLP.Chemscore.Metal>  (296) 
0.0000

>  <Gold.PLP.Fitness>  (296) 
49.5251

>  <Gold.PLP.PLP>  (296) 
-37.4239

>  <Gold.PLP.ligand.clash>  (296) 
0.0000

>  <Gold.PLP.ligand.torsion>  (296) 
1.1280

>  <Gold.PLP.part.buried>  (296) 
-8.7303

>  <Gold.PLP.part.hbond>  (296) 
-6.9513

>  <Gold.PLP.part.metal>  (296) 
0.0000

>  <Gold.PLP.part.nonpolar>  (296) 
-24.0720

>  <Gold.PLP.part.repulsive>  (296) 
0.1535

>  <Gold.Protein.RotatedAtoms>  (296) 


>  <Gold.Protein.RotatedTorsions>  (296) 


>  <Gold.Protein.RotatedWaterAtoms>  (296) 


>  <Gold.Version>  (296) 
5.3.0

>  <PLP.Chemscore.CHOScore>  (296) 


>  <PLP.Chemscore.Hbond>  (296) 


>  <PLP.Chemscore.Internal.Correction>  (296) 


>  <PLP.Chemscore.Metal>  (296) 


>  <PLP.Fitness>  (296) 


>  <PLP.PLP>  (296) 


>  <PLP.ligand.clash>  (296) 


>  <PLP.ligand.torsion>  (296) 


>  <PLP.part.buried>  (296) 


>  <PLP.part.hbond>  (296) 


>  <PLP.part.metal>  (296) 


>  <PLP.part.nonpolar>  (296) 


>  <PLP.part.repulsive>  (296) 


>  <Version>  (296) 


$$$$
296|Compound_175|Compounds_3D_F|sdf|42|dock2|1
     RDKit          3D

 15 14  0  0  0  0  0  0  0  0999 V2000
  -14.1403  -19.7316   11.4215 O   0  0  0  0  0  0  0  0  0  0  0  0
  -13.2600  -18.7679   11.7792 C   0  0  0  0  0  0  0  0  0  0  0  0
  -13.5861  -17.9011   12.5754 O   0  0  0  0  0  0  0  0  0  0  0  0
  -11.9221  -18.9186   11.0665 C   0  0  0  0  0  0  0  0  0  0  0  0
  -11.0484  -17.8001   11.4072 N   0  0  0  0  0  0  0  0  0  0  0  0
   -9.6791  -17.9101   11.5032 C   0  0  0  0  0  0  0  0  0  0  0  0
   -9.0705  -18.9651   11.3369 O   0  0  0  0  0  0  0  0  0  0  0  0
   -8.9863  -16.5877   11.8806 C   0  0  0  0  0  0  0  0  0  0  0  0
   -9.4125  -15.5379   10.9456 N   0  0  0  0  0  0  0  0  0  0  0  0
   -7.4630  -16.7955   11.8954 C   0  0  0  0  0  0  0  0  0  0  0  0
   -6.7037  -15.5732   12.4221 C   0  0  0  0  0  0  0  0  0  0  0  0
   -5.1988  -15.7132   12.1951 C   0  0  0  0  0  0  0  0  0  0  0  0
   -4.6031  -14.3986   11.9915 N   0  0  0  0  0  0  0  0  0  0  0  0
  -12.1361  -18.9686    9.5548 C   0  0  0  0  0  0  0  0  0  0  0  0
  -10.8885  -19.2220    8.9017 O   0  0  0  0  0  0  0  0  0  0  0  0
  1  2  1  0
  2  3  2  0
  2  4  1  0
  4  5  1  0
  4 14  1  0
  5  6  1  0
  6  7  2  0
  6  8  1  0
  8  9  1  0
  8 10  1  0
 10 11  1  0
 11 12  1  0
 12 13  1  0
 14 15  1  0
M  END
>  <Gold.Gold.Protein.RotatedWaterAtoms>  (297) 


>  <Gold.Id.Protein>  (297) 


>  <Gold.PLP.Chemscore.CHOScore>  (297) 
0.0000

>  <Gold.PLP.Chemscore.Hbond>  (297) 
4.3184

>  <Gold.PLP.Chemscore.Internal.Correction>  (297) 
0.2068

>  <Gold.PLP.Chemscore.Metal>  (297) 
0.0000

>  <Gold.PLP.Fitness>  (297) 
43.0087

>  <Gold.PLP.PLP>  (297) 
-31.3078

>  <Gold.PLP.ligand.clash>  (297) 
0.0000

>  <Gold.PLP.ligand.torsion>  (297) 
0.7306

>  <Gold.PLP.part.buried>  (297) 
-4.6286

>  <Gold.PLP.part.hbond>  (297) 
-5.6069

>  <Gold.PLP.part.metal>  (297) 
0.0000

>  <Gold.PLP.part.nonpolar>  (297) 
-19.9071

>  <Gold.PLP.part.repulsive>  (297) 
0.2917

>  <Gold.Protein.RotatedAtoms>  (297) 


>  <Gold.Protein.RotatedTorsions>  (297) 


>  <Gold.Protein.RotatedWaterAtoms>  (297) 


>  <Gold.Version>  (297) 
5.3.0

>  <PLP.Chemscore.CHOScore>  (297) 


>  <PLP.Chemscore.Hbond>  (297) 


>  <PLP.Chemscore.Internal.Correction>  (297) 


>  <PLP.Chemscore.Metal>  (297) 


>  <PLP.Fitness>  (297) 


>  <PLP.PLP>  (297) 


>  <PLP.ligand.clash>  (297) 


>  <PLP.ligand.torsion>  (297) 


>  <PLP.part.buried>  (297) 


>  <PLP.part.hbond>  (297) 


>  <PLP.part.metal>  (297) 


>  <PLP.part.nonpolar>  (297) 


>  <PLP.part.repulsive>  (297) 


>  <Version>  (297) 


$$$$
297|Compound_175|Compounds_3D_F|sdf|42|dock3|1
     RDKit          3D

 15 14  0  0  0  0  0  0  0  0999 V2000
  -11.7094  -17.6086   12.5038 O   0  0  0  0  0  0  0  0  0  0  0  0
  -11.0123  -18.5760   11.8635 C   0  0  0  0  0  0  0  0  0  0  0  0
  -11.2959  -19.7521   12.0305 O   0  0  0  0  0  0  0  0  0  0  0  0
   -9.8984  -18.0032   10.9965 C   0  0  0  0  0  0  0  0  0  0  0  0
   -9.7127  -16.5870   11.2970 N   0  0  0  0  0  0  0  0  0  0  0  0
   -8.4919  -16.0329   11.6120 C   0  0  0  0  0  0  0  0  0  0  0  0
   -7.4529  -16.6845   11.6946 O   0  0  0  0  0  0  0  0  0  0  0  0
   -8.5629  -14.5204   11.8915 C   0  0  0  0  0  0  0  0  0  0  0  0
   -9.2833  -13.8620   10.7935 N   0  0  0  0  0  0  0  0  0  0  0  0
   -7.1409  -13.9707   12.0908 C   0  0  0  0  0  0  0  0  0  0  0  0
   -7.1236  -12.4684   12.3919 C   0  0  0  0  0  0  0  0  0  0  0  0
   -5.6937  -11.9391   12.4979 C   0  0  0  0  0  0  0  0  0  0  0  0
   -4.8902  -12.8403   13.3144 N   0  0  0  0  0  0  0  0  0  0  0  0
  -10.2412  -18.1797    9.5183 C   0  0  0  0  0  0  0  0  0  0  0  0
   -9.1166  -17.8053    8.7169 O   0  0  0  0  0  0  0  0  0  0  0  0
  1  2  1  0
  2  3  2  0
  2  4  1  0
  4  5  1  0
  4 14  1  0
  5  6  1  0
  6  7  2  0
  6  8  1  0
  8  9  1  0
  8 10  1  0
 10 11  1  0
 11 12  1  0
 12 13  1  0
 14 15  1  0
M  END
>  <Gold.Gold.Protein.RotatedWaterAtoms>  (298) 


>  <Gold.Id.Protein>  (298) 


>  <Gold.PLP.Chemscore.CHOScore>  (298) 
0.0000

>  <Gold.PLP.Chemscore.Hbond>  (298) 
5.0173

>  <Gold.PLP.Chemscore.Internal.Correction>  (298) 
0.0854

>  <Gold.PLP.Chemscore.Metal>  (298) 
0.0000

>  <Gold.PLP.Fitness>  (298) 
53.1756

>  <Gold.PLP.PLP>  (298) 
-39.0997

>  <Gold.PLP.ligand.clash>  (298) 
0.0000

>  <Gold.PLP.ligand.torsion>  (298) 
0.5307

>  <Gold.PLP.part.buried>  (298) 
-8.5547

>  <Gold.PLP.part.hbond>  (298) 
-7.8813

>  <Gold.PLP.part.metal>  (298) 
0.0000

>  <Gold.PLP.part.nonpolar>  (298) 
-22.8999

>  <Gold.PLP.part.repulsive>  (298) 
0.1007

>  <Gold.Protein.RotatedAtoms>  (298) 


>  <Gold.Protein.RotatedTorsions>  (298) 


>  <Gold.Protein.RotatedWaterAtoms>  (298) 


>  <Gold.Version>  (298) 
5.3.0

>  <PLP.Chemscore.CHOScore>  (298) 


>  <PLP.Chemscore.Hbond>  (298) 


>  <PLP.Chemscore.Internal.Correction>  (298) 


>  <PLP.Chemscore.Metal>  (298) 


>  <PLP.Fitness>  (298) 


>  <PLP.PLP>  (298) 


>  <PLP.ligand.clash>  (298) 


>  <PLP.ligand.torsion>  (298) 


>  <PLP.part.buried>  (298) 


>  <PLP.part.hbond>  (298) 


>  <PLP.part.metal>  (298) 


>  <PLP.part.nonpolar>  (298) 


>  <PLP.part.repulsive>  (298) 


>  <Version>  (298) 


$$$$
298|Compound_175|Compounds_3D_F|sdf|42|dock4|1
     RDKit          3D

 15 14  0  0  0  0  0  0  0  0999 V2000
  -12.4023  -17.9013   12.4995 O   0  0  0  0  0  0  0  0  0  0  0  0
  -11.6171  -18.7047   11.7446 C   0  0  0  0  0  0  0  0  0  0  0  0
  -12.1143  -19.5907   11.0668 O   0  0  0  0  0  0  0  0  0  0  0  0
  -10.1394  -18.3640   11.8890 C   0  0  0  0  0  0  0  0  0  0  0  0
   -9.8929  -17.0070   11.4112 N   0  0  0  0  0  0  0  0  0  0  0  0
   -8.6385  -16.4425   11.3466 C   0  0  0  0  0  0  0  0  0  0  0  0
   -7.6159  -17.0198   11.7099 O   0  0  0  0  0  0  0  0  0  0  0  0
   -8.6466  -14.9987   10.8117 C   0  0  0  0  0  0  0  0  0  0  0  0
   -9.1046  -15.0058    9.4159 N   0  0  0  0  0  0  0  0  0  0  0  0
   -7.2477  -14.3836   10.9809 C   0  0  0  0  0  0  0  0  0  0  0  0
   -6.9533  -13.9707   12.4269 C   0  0  0  0  0  0  0  0  0  0  0  0
   -5.5118  -13.4879   12.5847 C   0  0  0  0  0  0  0  0  0  0  0  0
   -4.5969  -14.4543   11.9901 N   0  0  0  0  0  0  0  0  0  0  0  0
   -9.2925  -19.3563   11.0942 C   0  0  0  0  0  0  0  0  0  0  0  0
   -9.6888  -19.3321    9.7195 O   0  0  0  0  0  0  0  0  0  0  0  0
  1  2  1  0
  2  3  2  0
  2  4  1  0
  4  5  1  0
  4 14  1  0
  5  6  1  0
  6  7  2  0
  6  8  1  0
  8  9  1  0
  8 10  1  0
 10 11  1  0
 11 12  1  0
 12 13  1  0
 14 15  1  0
M  END
>  <Gold.Gold.Protein.RotatedWaterAtoms>  (299) 


>  <Gold.Id.Protein>  (299) 


>  <Gold.PLP.Chemscore.CHOScore>  (299) 
0.0000

>  <Gold.PLP.Chemscore.Hbond>  (299) 
3.9920

>  <Gold.PLP.Chemscore.Internal.Correction>  (299) 
0.0854

>  <Gold.PLP.Chemscore.Metal>  (299) 
0.0000

>  <Gold.PLP.Fitness>  (299) 
45.3885

>  <Gold.PLP.PLP>  (299) 
-33.9153

>  <Gold.PLP.ligand.clash>  (299) 
0.0000

>  <Gold.PLP.ligand.torsion>  (299) 
0.2941

>  <Gold.PLP.part.buried>  (299) 
-6.1911

>  <Gold.PLP.part.hbond>  (299) 
-6.2904

>  <Gold.PLP.part.metal>  (299) 
0.0000

>  <Gold.PLP.part.nonpolar>  (299) 
-21.6861

>  <Gold.PLP.part.repulsive>  (299) 
0.1214

>  <Gold.Protein.RotatedAtoms>  (299) 


>  <Gold.Protein.RotatedTorsions>  (299) 


>  <Gold.Protein.RotatedWaterAtoms>  (299) 


>  <Gold.Version>  (299) 
5.3.0

>  <PLP.Chemscore.CHOScore>  (299) 


>  <PLP.Chemscore.Hbond>  (299) 


>  <PLP.Chemscore.Internal.Correction>  (299) 


>  <PLP.Chemscore.Metal>  (299) 


>  <PLP.Fitness>  (299) 


>  <PLP.PLP>  (299) 


>  <PLP.ligand.clash>  (299) 


>  <PLP.ligand.torsion>  (299) 


>  <PLP.part.buried>  (299) 


>  <PLP.part.hbond>  (299) 


>  <PLP.part.metal>  (299) 


>  <PLP.part.nonpolar>  (299) 


>  <PLP.part.repulsive>  (299) 


>  <Version>  (299) 


$$$$
299|Compound_175|Compounds_3D_F|sdf|42|dock5|1
     RDKit          3D

 15 14  0  0  0  0  0  0  0  0999 V2000
  -12.5569  -20.4184   11.4501 O   0  0  0  0  0  0  0  0  0  0  0  0
  -11.8783  -19.2502   11.5315 C   0  0  0  0  0  0  0  0  0  0  0  0
  -11.5508  -18.8031   12.6198 O   0  0  0  0  0  0  0  0  0  0  0  0
  -11.6352  -18.6303   10.1614 C   0  0  0  0  0  0  0  0  0  0  0  0
  -10.8049  -17.4374   10.2955 N   0  0  0  0  0  0  0  0  0  0  0  0
   -9.4435  -17.4806   10.4988 C   0  0  0  0  0  0  0  0  0  0  0  0
   -8.8080  -18.5267   10.6121 O   0  0  0  0  0  0  0  0  0  0  0  0
   -8.7995  -16.0866   10.6115 C   0  0  0  0  0  0  0  0  0  0  0  0
   -8.7045  -15.4912    9.2719 N   0  0  0  0  0  0  0  0  0  0  0  0
   -7.4362  -16.2091   11.3116 C   0  0  0  0  0  0  0  0  0  0  0  0
   -6.7360  -14.8572   11.4853 C   0  0  0  0  0  0  0  0  0  0  0  0
   -5.4240  -15.0054   12.2551 C   0  0  0  0  0  0  0  0  0  0  0  0
   -4.6633  -13.7642   12.1829 N   0  0  0  0  0  0  0  0  0  0  0  0
  -12.9667  -18.2654    9.5074 C   0  0  0  0  0  0  0  0  0  0  0  0
  -13.8353  -19.4023    9.5206 O   0  0  0  0  0  0  0  0  0  0  0  0
  1  2  1  0
  2  3  2  0
  2  4  1  0
  4  5  1  0
  4 14  1  0
  5  6  1  0
  6  7  2  0
  6  8  1  0
  8  9  1  0
  8 10  1  0
 10 11  1  0
 11 12  1  0
 12 13  1  0
 14 15  1  0
M  END
>  <Gold.Gold.Protein.RotatedWaterAtoms>  (300) 


>  <Gold.Id.Protein>  (300) 


>  <Gold.PLP.Chemscore.CHOScore>  (300) 
0.0000

>  <Gold.PLP.Chemscore.Hbond>  (300) 
4.9120

>  <Gold.PLP.Chemscore.Internal.Correction>  (300) 
0.0854

>  <Gold.PLP.Chemscore.Metal>  (300) 
0.0000

>  <Gold.PLP.Fitness>  (300) 
41.7706

>  <Gold.PLP.PLP>  (300) 
-28.5438

>  <Gold.PLP.ligand.clash>  (300) 
0.0000

>  <Gold.PLP.ligand.torsion>  (300) 
0.7973

>  <Gold.PLP.part.buried>  (300) 
-5.9755

>  <Gold.PLP.part.hbond>  (300) 
-4.8942

>  <Gold.PLP.part.metal>  (300) 
0.0000

>  <Gold.PLP.part.nonpolar>  (300) 
-17.7269

>  <Gold.PLP.part.repulsive>  (300) 
0.0499

>  <Gold.Protein.RotatedAtoms>  (300) 


>  <Gold.Protein.RotatedTorsions>  (300) 


>  <Gold.Protein.RotatedWaterAtoms>  (300) 


>  <Gold.Version>  (300) 
5.3.0

>  <PLP.Chemscore.CHOScore>  (300) 


>  <PLP.Chemscore.Hbond>  (300) 


>  <PLP.Chemscore.Internal.Correction>  (300) 


>  <PLP.Chemscore.Metal>  (300) 


>  <PLP.Fitness>  (300) 


>  <PLP.PLP>  (300) 


>  <PLP.ligand.clash>  (300) 


>  <PLP.ligand.torsion>  (300) 


>  <PLP.part.buried>  (300) 


>  <PLP.part.hbond>  (300) 


>  <PLP.part.metal>  (300) 


>  <PLP.part.nonpolar>  (300) 


>  <PLP.part.repulsive>  (300) 


>  <Version>  (300) 


$$$$
300|Compound_175|Compounds_3D_F|sdf|42|dock6|1
     RDKit          3D

 15 14  0  0  0  0  0  0  0  0999 V2000
  -11.5491  -17.6309   12.4895 O   0  0  0  0  0  0  0  0  0  0  0  0
  -10.8453  -18.6267   11.9022 C   0  0  0  0  0  0  0  0  0  0  0  0
  -11.1763  -19.7914   12.0616 O   0  0  0  0  0  0  0  0  0  0  0  0
   -9.6622  -18.0987   11.1008 C   0  0  0  0  0  0  0  0  0  0  0  0
   -9.5077  -16.6652   11.3282 N   0  0  0  0  0  0  0  0  0  0  0  0
   -8.3100  -16.0765   11.6680 C   0  0  0  0  0  0  0  0  0  0  0  0
   -7.2685  -16.7074   11.8366 O   0  0  0  0  0  0  0  0  0  0  0  0
   -8.4121  -14.5518   11.8568 C   0  0  0  0  0  0  0  0  0  0  0  0
   -9.1047  -13.9695   10.6996 N   0  0  0  0  0  0  0  0  0  0  0  0
   -7.0056  -13.9685   12.0700 C   0  0  0  0  0  0  0  0  0  0  0  0
   -7.0333  -12.4977   12.4988 C   0  0  0  0  0  0  0  0  0  0  0  0
   -5.6420  -11.8698   12.4216 C   0  0  0  0  0  0  0  0  0  0  0  0
   -4.7583  -12.5004   13.3942 N   0  0  0  0  0  0  0  0  0  0  0  0
   -9.8750  -18.3684    9.6124 C   0  0  0  0  0  0  0  0  0  0  0  0
   -8.7693  -17.8488    8.8677 O   0  0  0  0  0  0  0  0  0  0  0  0
  1  2  1  0
  2  3  2  0
  2  4  1  0
  4  5  1  0
  4 14  1  0
  5  6  1  0
  6  7  2  0
  6  8  1  0
  8  9  1  0
  8 10  1  0
 10 11  1  0
 11 12  1  0
 12 13  1  0
 14 15  1  0
M  END
>  <Gold.Gold.Protein.RotatedWaterAtoms>  (301) 


>  <Gold.Id.Protein>  (301) 


>  <Gold.PLP.Chemscore.CHOScore>  (301) 
0.0000

>  <Gold.PLP.Chemscore.Hbond>  (301) 
5.0000

>  <Gold.PLP.Chemscore.Internal.Correction>  (301) 
0.0854

>  <Gold.PLP.Chemscore.Metal>  (301) 
0.0000

>  <Gold.PLP.Fitness>  (301) 
53.6603

>  <Gold.PLP.PLP>  (301) 
-39.5082

>  <Gold.PLP.ligand.clash>  (301) 
0.0000

>  <Gold.PLP.ligand.torsion>  (301) 
0.4666

>  <Gold.PLP.part.buried>  (301) 
-9.4801

>  <Gold.PLP.part.hbond>  (301) 
-8.0000

>  <Gold.PLP.part.metal>  (301) 
0.0000

>  <Gold.PLP.part.nonpolar>  (301) 
-22.4379

>  <Gold.PLP.part.repulsive>  (301) 
0.0976

>  <Gold.Protein.RotatedAtoms>  (301) 


>  <Gold.Protein.RotatedTorsions>  (301) 


>  <Gold.Protein.RotatedWaterAtoms>  (301) 


>  <Gold.Version>  (301) 
5.3.0

>  <PLP.Chemscore.CHOScore>  (301) 


>  <PLP.Chemscore.Hbond>  (301) 


>  <PLP.Chemscore.Internal.Correction>  (301) 


>  <PLP.Chemscore.Metal>  (301) 


>  <PLP.Fitness>  (301) 


>  <PLP.PLP>  (301) 


>  <PLP.ligand.clash>  (301) 


>  <PLP.ligand.torsion>  (301) 


>  <PLP.part.buried>  (301) 


>  <PLP.part.hbond>  (301) 


>  <PLP.part.metal>  (301) 


>  <PLP.part.nonpolar>  (301) 


>  <PLP.part.repulsive>  (301) 


>  <Version>  (301) 


$$$$
301|Compound_178|Compounds_3D_F|sdf|43|dock1|1
     RDKit          3D

 14 13  0  0  0  0  0  0  0  0999 V2000
  -11.7688  -17.9923   10.0490 O   0  0  0  0  0  0  0  0  0  0  0  0
  -10.8168  -18.6432   11.1751 P   0  0  0  0  0  0  0  0  0  0  0  0
  -11.4531  -18.7203   12.5250 O   0  0  0  0  0  0  0  0  0  0  0  0
  -10.5299  -20.0827   10.5198 O   0  0  0  0  0  0  0  0  0  0  0  0
   -9.2624  -17.7557   11.0409 C   0  0  0  0  0  0  0  0  0  0  0  0
   -9.4883  -16.3397   11.2668 N   0  0  0  0  0  0  0  0  0  0  0  0
   -8.4412  -15.4375   11.2787 C   0  0  0  0  0  0  0  0  0  0  0  0
   -7.2859  -15.7339   10.9796 O   0  0  0  0  0  0  0  0  0  0  0  0
   -8.8469  -14.0146   11.6967 C   0  0  0  0  0  0  0  0  0  0  0  0
   -9.9864  -13.5997   10.8678 N   0  0  0  0  0  0  0  0  0  0  0  0
   -7.6336  -13.0831   11.5535 C   0  0  0  0  0  0  0  0  0  0  0  0
   -6.6153  -13.2497   12.6846 C   0  0  0  0  0  0  0  0  0  0  0  0
   -5.4302  -12.3035   12.4968 C   0  0  0  0  0  0  0  0  0  0  0  0
   -4.5481  -12.3723   13.6541 N   0  0  0  0  0  0  0  0  0  0  0  0
  1  2  1  0
  2  3  2  0
  2  4  1  0
  2  5  1  0
  5  6  1  0
  6  7  1  0
  7  8  2  0
  7  9  1  0
  9 10  1  0
  9 11  1  0
 11 12  1  0
 12 13  1  0
 13 14  1  0
M  END
>  <Gold.Gold.Protein.RotatedWaterAtoms>  (302) 


>  <Gold.Id.Protein>  (302) 


>  <Gold.PLP.Chemscore.CHOScore>  (302) 
0.0000

>  <Gold.PLP.Chemscore.Hbond>  (302) 
6.6700

>  <Gold.PLP.Chemscore.Internal.Correction>  (302) 
0.2065

>  <Gold.PLP.Chemscore.Metal>  (302) 
0.0000

>  <Gold.PLP.Fitness>  (302) 
55.0195

>  <Gold.PLP.PLP>  (302) 
-35.5231

>  <Gold.PLP.ligand.clash>  (302) 
0.0000

>  <Gold.PLP.ligand.torsion>  (302) 
0.3600

>  <Gold.PLP.part.buried>  (302) 
-7.3140

>  <Gold.PLP.part.hbond>  (302) 
-7.4974

>  <Gold.PLP.part.metal>  (302) 
0.0000

>  <Gold.PLP.part.nonpolar>  (302) 
-21.6242

>  <Gold.PLP.part.repulsive>  (302) 
0.0935

>  <Gold.Protein.RotatedAtoms>  (302) 


>  <Gold.Protein.RotatedTorsions>  (302) 


>  <Gold.Protein.RotatedWaterAtoms>  (302) 


>  <Gold.Version>  (302) 
5.3.0

>  <PLP.Chemscore.CHOScore>  (302) 


>  <PLP.Chemscore.Hbond>  (302) 


>  <PLP.Chemscore.Internal.Correction>  (302) 


>  <PLP.Chemscore.Metal>  (302) 


>  <PLP.Fitness>  (302) 


>  <PLP.PLP>  (302) 


>  <PLP.ligand.clash>  (302) 


>  <PLP.ligand.torsion>  (302) 


>  <PLP.part.buried>  (302) 


>  <PLP.part.hbond>  (302) 


>  <PLP.part.metal>  (302) 


>  <PLP.part.nonpolar>  (302) 


>  <PLP.part.repulsive>  (302) 


>  <Version>  (302) 


$$$$
302|Compound_178|Compounds_3D_F|sdf|43|dock2|1
     RDKit          3D

 14 13  0  0  0  0  0  0  0  0999 V2000
  -11.6037  -17.8321    9.9877 O   0  0  0  0  0  0  0  0  0  0  0  0
  -10.8915  -18.5264   11.2563 P   0  0  0  0  0  0  0  0  0  0  0  0
  -11.7199  -18.4935   12.4995 O   0  0  0  0  0  0  0  0  0  0  0  0
  -10.6549  -20.0097   10.6839 O   0  0  0  0  0  0  0  0  0  0  0  0
   -9.2550  -17.7928   11.3309 C   0  0  0  0  0  0  0  0  0  0  0  0
   -9.3670  -16.3834   11.6601 N   0  0  0  0  0  0  0  0  0  0  0  0
   -8.2454  -15.5937   11.8310 C   0  0  0  0  0  0  0  0  0  0  0  0
   -7.1013  -15.9794   11.5979 O   0  0  0  0  0  0  0  0  0  0  0  0
   -8.5516  -14.1747   12.3375 C   0  0  0  0  0  0  0  0  0  0  0  0
  -10.0067  -14.0452   12.4896 N   0  0  0  0  0  0  0  0  0  0  0  0
   -7.9602  -13.1518   11.3555 C   0  0  0  0  0  0  0  0  0  0  0  0
   -6.8977  -12.2540   11.9952 C   0  0  0  0  0  0  0  0  0  0  0  0
   -5.7138  -13.0801   12.4962 C   0  0  0  0  0  0  0  0  0  0  0  0
   -4.7304  -12.2109   13.1284 N   0  0  0  0  0  0  0  0  0  0  0  0
  1  2  1  0
  2  3  2  0
  2  4  1  0
  2  5  1  0
  5  6  1  0
  6  7  1  0
  7  8  2  0
  7  9  1  0
  9 10  1  0
  9 11  1  0
 11 12  1  0
 12 13  1  0
 13 14  1  0
M  END
>  <Gold.Gold.Protein.RotatedWaterAtoms>  (303) 


>  <Gold.Id.Protein>  (303) 


>  <Gold.PLP.Chemscore.CHOScore>  (303) 
0.0000

>  <Gold.PLP.Chemscore.Hbond>  (303) 
3.9440

>  <Gold.PLP.Chemscore.Internal.Correction>  (303) 
0.1401

>  <Gold.PLP.Chemscore.Metal>  (303) 
0.0000

>  <Gold.PLP.Fitness>  (303) 
48.3313

>  <Gold.PLP.PLP>  (303) 
-38.0041

>  <Gold.PLP.ligand.clash>  (303) 
0.0000

>  <Gold.PLP.ligand.torsion>  (303) 
0.8225

>  <Gold.PLP.part.buried>  (303) 
-8.9161

>  <Gold.PLP.part.hbond>  (303) 
-8.0050

>  <Gold.PLP.part.metal>  (303) 
0.0000

>  <Gold.PLP.part.nonpolar>  (303) 
-21.3728

>  <Gold.PLP.part.repulsive>  (303) 
0.1521

>  <Gold.Protein.RotatedAtoms>  (303) 


>  <Gold.Protein.RotatedTorsions>  (303) 


>  <Gold.Protein.RotatedWaterAtoms>  (303) 


>  <Gold.Version>  (303) 
5.3.0

>  <PLP.Chemscore.CHOScore>  (303) 


>  <PLP.Chemscore.Hbond>  (303) 


>  <PLP.Chemscore.Internal.Correction>  (303) 


>  <PLP.Chemscore.Metal>  (303) 


>  <PLP.Fitness>  (303) 


>  <PLP.PLP>  (303) 


>  <PLP.ligand.clash>  (303) 


>  <PLP.ligand.torsion>  (303) 


>  <PLP.part.buried>  (303) 


>  <PLP.part.hbond>  (303) 


>  <PLP.part.metal>  (303) 


>  <PLP.part.nonpolar>  (303) 


>  <PLP.part.repulsive>  (303) 


>  <Version>  (303) 


$$$$
303|Compound_178|Compounds_3D_F|sdf|43|dock3|1
     RDKit          3D

 14 13  0  0  0  0  0  0  0  0999 V2000
  -11.1818  -17.8955    9.9750 O   0  0  0  0  0  0  0  0  0  0  0  0
  -10.5520  -18.4056   11.3683 P   0  0  0  0  0  0  0  0  0  0  0  0
  -11.5311  -18.4219   12.4971 O   0  0  0  0  0  0  0  0  0  0  0  0
  -10.0433  -19.8694   10.9413 O   0  0  0  0  0  0  0  0  0  0  0  0
   -9.0544  -17.4400   11.5839 C   0  0  0  0  0  0  0  0  0  0  0  0
   -9.3973  -16.0399   11.7547 N   0  0  0  0  0  0  0  0  0  0  0  0
   -8.5156  -15.0355   11.4016 C   0  0  0  0  0  0  0  0  0  0  0  0
   -7.4553  -15.2386   10.8129 O   0  0  0  0  0  0  0  0  0  0  0  0
   -8.9790  -13.6265   11.8062 C   0  0  0  0  0  0  0  0  0  0  0  0
  -10.1629  -13.2850   11.0067 N   0  0  0  0  0  0  0  0  0  0  0  0
   -7.8189  -12.6391   11.6074 C   0  0  0  0  0  0  0  0  0  0  0  0
   -6.5321  -13.0793   12.3105 C   0  0  0  0  0  0  0  0  0  0  0  0
   -5.5753  -11.9011   12.4874 C   0  0  0  0  0  0  0  0  0  0  0  0
   -4.5460  -12.2357   13.4625 N   0  0  0  0  0  0  0  0  0  0  0  0
  1  2  1  0
  2  3  2  0
  2  4  1  0
  2  5  1  0
  5  6  1  0
  6  7  1  0
  7  8  2  0
  7  9  1  0
  9 10  1  0
  9 11  1  0
 11 12  1  0
 12 13  1  0
 13 14  1  0
M  END
>  <Gold.Gold.Protein.RotatedWaterAtoms>  (304) 


>  <Gold.Id.Protein>  (304) 


>  <Gold.PLP.Chemscore.CHOScore>  (304) 
0.0000

>  <Gold.PLP.Chemscore.Hbond>  (304) 
6.0280

>  <Gold.PLP.Chemscore.Internal.Correction>  (304) 
0.1401

>  <Gold.PLP.Chemscore.Metal>  (304) 
0.0000

>  <Gold.PLP.Fitness>  (304) 
55.2434

>  <Gold.PLP.PLP>  (304) 
-38.1583

>  <Gold.PLP.ligand.clash>  (304) 
0.0000

>  <Gold.PLP.ligand.torsion>  (304) 
0.5695

>  <Gold.PLP.part.buried>  (304) 
-7.4853

>  <Gold.PLP.part.hbond>  (304) 
-7.8137

>  <Gold.PLP.part.metal>  (304) 
0.0000

>  <Gold.PLP.part.nonpolar>  (304) 
-22.9823

>  <Gold.PLP.part.repulsive>  (304) 
0.1779

>  <Gold.Protein.RotatedAtoms>  (304) 


>  <Gold.Protein.RotatedTorsions>  (304) 


>  <Gold.Protein.RotatedWaterAtoms>  (304) 


>  <Gold.Version>  (304) 
5.3.0

>  <PLP.Chemscore.CHOScore>  (304) 


>  <PLP.Chemscore.Hbond>  (304) 


>  <PLP.Chemscore.Internal.Correction>  (304) 


>  <PLP.Chemscore.Metal>  (304) 


>  <PLP.Fitness>  (304) 


>  <PLP.PLP>  (304) 


>  <PLP.ligand.clash>  (304) 


>  <PLP.ligand.torsion>  (304) 


>  <PLP.part.buried>  (304) 


>  <PLP.part.hbond>  (304) 


>  <PLP.part.metal>  (304) 


>  <PLP.part.nonpolar>  (304) 


>  <PLP.part.repulsive>  (304) 


>  <Version>  (304) 


$$$$
304|Compound_179|Compounds_3D_F|sdf|44|dock1|1
     RDKit          3D

 13 12  0  0  0  0  0  0  0  0999 V2000
   -4.5591  -12.1996   13.3968 N   0  0  0  0  0  0  0  0  0  0  0  0
   -5.6633  -12.4128   12.4712 C   0  0  0  0  0  0  0  0  0  0  0  0
   -6.3186  -13.7628   12.7477 C   0  0  0  0  0  0  0  0  0  0  0  0
   -7.3730  -14.0892   11.6868 C   0  0  0  0  0  0  0  0  0  0  0  0
   -8.4408  -15.0692   12.1871 C   0  0  0  0  0  0  0  0  0  0  0  0
   -9.6922  -14.3790   12.5968 N   0  0  0  0  0  0  0  0  0  0  0  0
   -8.7692  -16.1053   11.0952 C   0  0  0  0  0  0  0  0  0  0  0  0
   -8.2137  -16.1494   10.0074 O   0  0  0  0  0  0  0  0  0  0  0  0
   -9.7408  -17.0400   11.5122 N   0  0  0  0  0  0  0  0  0  0  0  0
  -10.3745  -18.2961   10.6385 S   0  0  0  0  0  0  0  0  0  0  0  0
  -10.5356  -19.3993   11.5640 O   0  0  0  0  0  0  0  0  0  0  0  0
  -11.4859  -17.8358    9.8351 O   0  0  0  0  0  0  0  0  0  0  0  0
   -9.0209  -18.7061    9.5582 C   0  0  0  0  0  0  0  0  0  0  0  0
  1  2  1  0
  2  3  1  0
  3  4  1  0
  4  5  1  0
  5  6  1  0
  5  7  1  0
  7  8  2  0
  7  9  1  0
  9 10  1  0
 10 11  2  0
 10 12  2  0
 10 13  1  0
M  END
>  <Gold.Gold.Protein.RotatedWaterAtoms>  (305) 


>  <Gold.Id.Protein>  (305) 


>  <Gold.PLP.Chemscore.CHOScore>  (305) 
0.0000

>  <Gold.PLP.Chemscore.Hbond>  (305) 
4.9920

>  <Gold.PLP.Chemscore.Internal.Correction>  (305) 
1.0544

>  <Gold.PLP.Chemscore.Metal>  (305) 
0.0000

>  <Gold.PLP.Fitness>  (305) 
44.1177

>  <Gold.PLP.PLP>  (305) 
-31.9277

>  <Gold.PLP.ligand.clash>  (305) 
1.1383

>  <Gold.PLP.ligand.torsion>  (305) 
1.3510

>  <Gold.PLP.part.buried>  (305) 
-6.8852

>  <Gold.PLP.part.hbond>  (305) 
-7.0000

>  <Gold.PLP.part.metal>  (305) 
0.0000

>  <Gold.PLP.part.nonpolar>  (305) 
-18.5647

>  <Gold.PLP.part.repulsive>  (305) 
0.1396

>  <Gold.Protein.RotatedAtoms>  (305) 


>  <Gold.Protein.RotatedTorsions>  (305) 


>  <Gold.Protein.RotatedWaterAtoms>  (305) 


>  <Gold.Version>  (305) 
5.3.0

>  <PLP.Chemscore.CHOScore>  (305) 


>  <PLP.Chemscore.Hbond>  (305) 


>  <PLP.Chemscore.Internal.Correction>  (305) 


>  <PLP.Chemscore.Metal>  (305) 


>  <PLP.Fitness>  (305) 


>  <PLP.PLP>  (305) 


>  <PLP.ligand.clash>  (305) 


>  <PLP.ligand.torsion>  (305) 


>  <PLP.part.buried>  (305) 


>  <PLP.part.hbond>  (305) 


>  <PLP.part.metal>  (305) 


>  <PLP.part.nonpolar>  (305) 


>  <PLP.part.repulsive>  (305) 


>  <Version>  (305) 


$$$$
305|Compound_179|Compounds_3D_F|sdf|44|dock2|1
     RDKit          3D

 13 12  0  0  0  0  0  0  0  0999 V2000
   -4.7984  -12.5017   13.2927 N   0  0  0  0  0  0  0  0  0  0  0  0
   -5.6209  -13.4849   12.6011 C   0  0  0  0  0  0  0  0  0  0  0  0
   -6.8485  -12.8049   12.0019 C   0  0  0  0  0  0  0  0  0  0  0  0
   -7.6663  -13.7892   11.1616 C   0  0  0  0  0  0  0  0  0  0  0  0
   -8.5258  -14.7314   12.0128 C   0  0  0  0  0  0  0  0  0  0  0  0
   -9.6541  -14.0234   12.6730 N   0  0  0  0  0  0  0  0  0  0  0  0
   -9.0851  -15.8751   11.1453 C   0  0  0  0  0  0  0  0  0  0  0  0
   -8.8831  -15.9821    9.9446 O   0  0  0  0  0  0  0  0  0  0  0  0
   -9.8069  -16.8232   11.9013 N   0  0  0  0  0  0  0  0  0  0  0  0
  -10.5725  -18.1841   11.3493 S   0  0  0  0  0  0  0  0  0  0  0  0
  -11.2045  -18.7949   12.5011 O   0  0  0  0  0  0  0  0  0  0  0  0
  -11.3376  -17.8796   10.1599 O   0  0  0  0  0  0  0  0  0  0  0  0
   -9.1956  -19.2154   10.8933 C   0  0  0  0  0  0  0  0  0  0  0  0
  1  2  1  0
  2  3  1  0
  3  4  1  0
  4  5  1  0
  5  6  1  0
  5  7  1  0
  7  8  2  0
  7  9  1  0
  9 10  1  0
 10 11  2  0
 10 12  2  0
 10 13  1  0
M  END
>  <Gold.Gold.Protein.RotatedWaterAtoms>  (306) 


>  <Gold.Id.Protein>  (306) 


>  <Gold.PLP.Chemscore.CHOScore>  (306) 
0.0000

>  <Gold.PLP.Chemscore.Hbond>  (306) 
5.9000

>  <Gold.PLP.Chemscore.Internal.Correction>  (306) 
1.0299

>  <Gold.PLP.Chemscore.Metal>  (306) 
0.0000

>  <Gold.PLP.Fitness>  (306) 
50.9175

>  <Gold.PLP.PLP>  (306) 
-33.5440

>  <Gold.PLP.ligand.clash>  (306) 
0.0000

>  <Gold.PLP.ligand.torsion>  (306) 
0.6782

>  <Gold.PLP.part.buried>  (306) 
-5.1286

>  <Gold.PLP.part.hbond>  (306) 
-8.5777

>  <Gold.PLP.part.metal>  (306) 
0.0000

>  <Gold.PLP.part.nonpolar>  (306) 
-20.0636

>  <Gold.PLP.part.repulsive>  (306) 
0.2243

>  <Gold.Protein.RotatedAtoms>  (306) 


>  <Gold.Protein.RotatedTorsions>  (306) 


>  <Gold.Protein.RotatedWaterAtoms>  (306) 


>  <Gold.Version>  (306) 
5.3.0

>  <PLP.Chemscore.CHOScore>  (306) 


>  <PLP.Chemscore.Hbond>  (306) 


>  <PLP.Chemscore.Internal.Correction>  (306) 


>  <PLP.Chemscore.Metal>  (306) 


>  <PLP.Fitness>  (306) 


>  <PLP.PLP>  (306) 


>  <PLP.ligand.clash>  (306) 


>  <PLP.ligand.torsion>  (306) 


>  <PLP.part.buried>  (306) 


>  <PLP.part.hbond>  (306) 


>  <PLP.part.metal>  (306) 


>  <PLP.part.nonpolar>  (306) 


>  <PLP.part.repulsive>  (306) 


>  <Version>  (306) 


$$$$
306|Compound_179|Compounds_3D_F|sdf|44|dock3|1
     RDKit          3D

 13 12  0  0  0  0  0  0  0  0999 V2000
   -4.6975  -14.2923   12.0568 N   0  0  0  0  0  0  0  0  0  0  0  0
   -5.7692  -13.4064   12.4906 C   0  0  0  0  0  0  0  0  0  0  0  0
   -7.0246  -13.6672   11.6633 C   0  0  0  0  0  0  0  0  0  0  0  0
   -7.3370  -15.1645   11.5962 C   0  0  0  0  0  0  0  0  0  0  0  0
   -8.5007  -15.4905   10.6526 C   0  0  0  0  0  0  0  0  0  0  0  0
   -8.1826  -15.1752    9.2350 N   0  0  0  0  0  0  0  0  0  0  0  0
   -8.8805  -16.9792   10.7663 C   0  0  0  0  0  0  0  0  0  0  0  0
   -8.0889  -17.8984   10.6174 O   0  0  0  0  0  0  0  0  0  0  0  0
  -10.2328  -17.1659   11.1238 N   0  0  0  0  0  0  0  0  0  0  0  0
  -11.0334  -18.6005   11.3337 S   0  0  0  0  0  0  0  0  0  0  0  0
  -10.0530  -19.6494   11.1396 O   0  0  0  0  0  0  0  0  0  0  0  0
  -11.8383  -18.5527   12.5347 O   0  0  0  0  0  0  0  0  0  0  0  0
  -12.1165  -18.6217    9.9217 C   0  0  0  0  0  0  0  0  0  0  0  0
  1  2  1  0
  2  3  1  0
  3  4  1  0
  4  5  1  0
  5  6  1  0
  5  7  1  0
  7  8  2  0
  7  9  1  0
  9 10  1  0
 10 11  2  0
 10 12  2  0
 10 13  1  0
M  END
>  <Gold.Gold.Protein.RotatedWaterAtoms>  (307) 


>  <Gold.Id.Protein>  (307) 


>  <Gold.PLP.Chemscore.CHOScore>  (307) 
0.0000

>  <Gold.PLP.Chemscore.Hbond>  (307) 
4.9920

>  <Gold.PLP.Chemscore.Internal.Correction>  (307) 
1.0299

>  <Gold.PLP.Chemscore.Metal>  (307) 
0.0000

>  <Gold.PLP.Fitness>  (307) 
43.1186

>  <Gold.PLP.PLP>  (307) 
-28.4301

>  <Gold.PLP.ligand.clash>  (307) 
0.0000

>  <Gold.PLP.ligand.torsion>  (307) 
0.6587

>  <Gold.PLP.part.buried>  (307) 
-6.3358

>  <Gold.PLP.part.hbond>  (307) 
-4.9716

>  <Gold.PLP.part.metal>  (307) 
0.0000

>  <Gold.PLP.part.nonpolar>  (307) 
-17.0766

>  <Gold.PLP.part.repulsive>  (307) 
0.0838

>  <Gold.Protein.RotatedAtoms>  (307) 


>  <Gold.Protein.RotatedTorsions>  (307) 


>  <Gold.Protein.RotatedWaterAtoms>  (307) 


>  <Gold.Version>  (307) 
5.3.0

>  <PLP.Chemscore.CHOScore>  (307) 


>  <PLP.Chemscore.Hbond>  (307) 


>  <PLP.Chemscore.Internal.Correction>  (307) 


>  <PLP.Chemscore.Metal>  (307) 


>  <PLP.Fitness>  (307) 


>  <PLP.PLP>  (307) 


>  <PLP.ligand.clash>  (307) 


>  <PLP.ligand.torsion>  (307) 


>  <PLP.part.buried>  (307) 


>  <PLP.part.hbond>  (307) 


>  <PLP.part.metal>  (307) 


>  <PLP.part.nonpolar>  (307) 


>  <PLP.part.repulsive>  (307) 


>  <Version>  (307) 


$$$$
307|Compound_179|Compounds_3D_F|sdf|44|dock4|1
     RDKit          3D

 13 12  0  0  0  0  0  0  0  0999 V2000
   -4.6011  -12.4391   13.3515 N   0  0  0  0  0  0  0  0  0  0  0  0
   -5.4907  -11.9307   12.3163 C   0  0  0  0  0  0  0  0  0  0  0  0
   -6.8880  -12.5156   12.5000 C   0  0  0  0  0  0  0  0  0  0  0  0
   -6.9614  -13.9445   11.9552 C   0  0  0  0  0  0  0  0  0  0  0  0
   -8.2861  -14.6425   12.2849 C   0  0  0  0  0  0  0  0  0  0  0  0
   -9.4598  -13.9127   11.7372 N   0  0  0  0  0  0  0  0  0  0  0  0
   -8.2838  -16.0815   11.7346 C   0  0  0  0  0  0  0  0  0  0  0  0
   -7.3281  -16.8396   11.8113 O   0  0  0  0  0  0  0  0  0  0  0  0
   -9.5300  -16.4520   11.1858 N   0  0  0  0  0  0  0  0  0  0  0  0
   -9.9356  -17.8966   10.4849 S   0  0  0  0  0  0  0  0  0  0  0  0
  -10.9877  -17.6087    9.5312 O   0  0  0  0  0  0  0  0  0  0  0  0
   -8.7431  -18.6078   10.0791 O   0  0  0  0  0  0  0  0  0  0  0  0
  -10.6812  -18.7647   11.8480 C   0  0  0  0  0  0  0  0  0  0  0  0
  1  2  1  0
  2  3  1  0
  3  4  1  0
  4  5  1  0
  5  6  1  0
  5  7  1  0
  7  8  2  0
  7  9  1  0
  9 10  1  0
 10 11  2  0
 10 12  2  0
 10 13  1  0
M  END
>  <Gold.Gold.Protein.RotatedWaterAtoms>  (308) 


>  <Gold.Id.Protein>  (308) 


>  <Gold.PLP.Chemscore.CHOScore>  (308) 
0.0000

>  <Gold.PLP.Chemscore.Hbond>  (308) 
4.0000

>  <Gold.PLP.Chemscore.Internal.Correction>  (308) 
1.0279

>  <Gold.PLP.Chemscore.Metal>  (308) 
0.0000

>  <Gold.PLP.Fitness>  (308) 
44.1103

>  <Gold.PLP.PLP>  (308) 
-33.1776

>  <Gold.PLP.ligand.clash>  (308) 
0.0000

>  <Gold.PLP.ligand.torsion>  (308) 
1.0476

>  <Gold.PLP.part.buried>  (308) 
-7.7237

>  <Gold.PLP.part.hbond>  (308) 
-6.0000

>  <Gold.PLP.part.metal>  (308) 
0.0000

>  <Gold.PLP.part.nonpolar>  (308) 
-20.0714

>  <Gold.PLP.part.repulsive>  (308) 
0.0844

>  <Gold.Protein.RotatedAtoms>  (308) 


>  <Gold.Protein.RotatedTorsions>  (308) 


>  <Gold.Protein.RotatedWaterAtoms>  (308) 


>  <Gold.Version>  (308) 
5.3.0

>  <PLP.Chemscore.CHOScore>  (308) 


>  <PLP.Chemscore.Hbond>  (308) 


>  <PLP.Chemscore.Internal.Correction>  (308) 


>  <PLP.Chemscore.Metal>  (308) 


>  <PLP.Fitness>  (308) 


>  <PLP.PLP>  (308) 


>  <PLP.ligand.clash>  (308) 


>  <PLP.ligand.torsion>  (308) 


>  <PLP.part.buried>  (308) 


>  <PLP.part.hbond>  (308) 


>  <PLP.part.metal>  (308) 


>  <PLP.part.nonpolar>  (308) 


>  <PLP.part.repulsive>  (308) 


>  <Version>  (308) 


$$$$
308|Compound_179|Compounds_3D_F|sdf|44|dock5|1
     RDKit          3D

 13 12  0  0  0  0  0  0  0  0999 V2000
   -4.7939  -12.4524   13.0793 N   0  0  0  0  0  0  0  0  0  0  0  0
   -5.7050  -13.2946   12.3163 C   0  0  0  0  0  0  0  0  0  0  0  0
   -7.0396  -12.5789   12.1296 C   0  0  0  0  0  0  0  0  0  0  0  0
   -8.0055  -13.4261   11.2970 C   0  0  0  0  0  0  0  0  0  0  0  0
   -8.6939  -14.5250   12.1151 C   0  0  0  0  0  0  0  0  0  0  0  0
   -9.8479  -14.0074   12.8964 N   0  0  0  0  0  0  0  0  0  0  0  0
   -9.1776  -15.6574   11.1891 C   0  0  0  0  0  0  0  0  0  0  0  0
   -9.0338  -15.6543    9.9754 O   0  0  0  0  0  0  0  0  0  0  0  0
   -9.7511  -16.7311   11.9030 N   0  0  0  0  0  0  0  0  0  0  0  0
  -10.3988  -18.1241   11.2841 S   0  0  0  0  0  0  0  0  0  0  0  0
  -11.1587  -18.7346   12.3561 O   0  0  0  0  0  0  0  0  0  0  0  0
  -11.0097  -17.8636    9.9991 O   0  0  0  0  0  0  0  0  0  0  0  0
   -8.9452  -19.1200   11.0332 C   0  0  0  0  0  0  0  0  0  0  0  0
  1  2  1  0
  2  3  1  0
  3  4  1  0
  4  5  1  0
  5  6  1  0
  5  7  1  0
  7  8  2  0
  7  9  1  0
  9 10  1  0
 10 11  2  0
 10 12  2  0
 10 13  1  0
M  END
>  <Gold.Gold.Protein.RotatedWaterAtoms>  (309) 


>  <Gold.Id.Protein>  (309) 


>  <Gold.PLP.Chemscore.CHOScore>  (309) 
0.0000

>  <Gold.PLP.Chemscore.Hbond>  (309) 
5.9175

>  <Gold.PLP.Chemscore.Internal.Correction>  (309) 
1.0267

>  <Gold.PLP.Chemscore.Metal>  (309) 
0.0000

>  <Gold.PLP.Fitness>  (309) 
51.0489

>  <Gold.PLP.PLP>  (309) 
-33.9242

>  <Gold.PLP.ligand.clash>  (309) 
0.0000

>  <Gold.PLP.ligand.torsion>  (309) 
0.8272

>  <Gold.PLP.part.buried>  (309) 
-4.4646

>  <Gold.PLP.part.hbond>  (309) 
-9.4663

>  <Gold.PLP.part.metal>  (309) 
0.0000

>  <Gold.PLP.part.nonpolar>  (309) 
-20.5946

>  <Gold.PLP.part.repulsive>  (309) 
0.2322

>  <Gold.Protein.RotatedAtoms>  (309) 


>  <Gold.Protein.RotatedTorsions>  (309) 


>  <Gold.Protein.RotatedWaterAtoms>  (309) 


>  <Gold.Version>  (309) 
5.3.0

>  <PLP.Chemscore.CHOScore>  (309) 


>  <PLP.Chemscore.Hbond>  (309) 


>  <PLP.Chemscore.Internal.Correction>  (309) 


>  <PLP.Chemscore.Metal>  (309) 


>  <PLP.Fitness>  (309) 


>  <PLP.PLP>  (309) 


>  <PLP.ligand.clash>  (309) 


>  <PLP.ligand.torsion>  (309) 


>  <PLP.part.buried>  (309) 


>  <PLP.part.hbond>  (309) 


>  <PLP.part.metal>  (309) 


>  <PLP.part.nonpolar>  (309) 


>  <PLP.part.repulsive>  (309) 


>  <Version>  (309) 


$$$$
309|Compound_181|Compounds_3D_F|sdf|45|dock1|1
     RDKit          3D

 13 12  0  0  0  0  0  0  0  0999 V2000
   -9.1527  -18.8751   10.8221 O   0  0  0  0  0  0  0  0  0  0  0  0
   -9.7973  -17.6771    9.9478 S   0  0  0  0  0  0  0  0  0  0  0  0
   -8.9535  -17.4786    8.7905 O   0  0  0  0  0  0  0  0  0  0  0  0
  -11.2144  -17.9220    9.8077 O   0  0  0  0  0  0  0  0  0  0  0  0
   -9.6143  -16.3277   10.9275 N   0  0  0  0  0  0  0  0  0  0  0  0
   -8.3834  -15.6478   11.0284 C   0  0  0  0  0  0  0  0  0  0  0  0
   -7.3590  -16.1665   10.5884 O   0  0  0  0  0  0  0  0  0  0  0  0
   -8.4294  -14.2595   11.6828 C   0  0  0  0  0  0  0  0  0  0  0  0
   -9.4406  -13.4345   10.9994 N   0  0  0  0  0  0  0  0  0  0  0  0
   -7.0421  -13.6054   11.6161 C   0  0  0  0  0  0  0  0  0  0  0  0
   -6.9972  -12.2318   12.3008 C   0  0  0  0  0  0  0  0  0  0  0  0
   -5.6033  -11.6058   12.2179 C   0  0  0  0  0  0  0  0  0  0  0  0
   -4.6994  -12.2541   13.1623 N   0  0  0  0  0  0  0  0  0  0  0  0
  1  2  1  0
  2  3  2  0
  2  4  2  0
  2  5  1  0
  5  6  1  0
  6  7  2  0
  6  8  1  0
  8  9  1  0
  8 10  1  0
 10 11  1  0
 11 12  1  0
 12 13  1  0
M  END
>  <Gold.Gold.Protein.RotatedWaterAtoms>  (310) 


>  <Gold.Id.Protein>  (310) 


>  <Gold.PLP.Chemscore.CHOScore>  (310) 
0.0000

>  <Gold.PLP.Chemscore.Hbond>  (310) 
4.4040

>  <Gold.PLP.Chemscore.Internal.Correction>  (310) 
1.0506

>  <Gold.PLP.Chemscore.Metal>  (310) 
0.0000

>  <Gold.PLP.Fitness>  (310) 
44.2645

>  <Gold.PLP.PLP>  (310) 
-31.2436

>  <Gold.PLP.ligand.clash>  (310) 
0.0000

>  <Gold.PLP.ligand.torsion>  (310) 
0.6208

>  <Gold.PLP.part.buried>  (310) 
-7.2543

>  <Gold.PLP.part.hbond>  (310) 
-6.7751

>  <Gold.PLP.part.metal>  (310) 
0.0000

>  <Gold.PLP.part.nonpolar>  (310) 
-16.6107

>  <Gold.PLP.part.repulsive>  (310) 
0.0601

>  <Gold.Protein.RotatedAtoms>  (310) 


>  <Gold.Protein.RotatedTorsions>  (310) 


>  <Gold.Protein.RotatedWaterAtoms>  (310) 


>  <Gold.Version>  (310) 
5.3.0

>  <PLP.Chemscore.CHOScore>  (310) 


>  <PLP.Chemscore.Hbond>  (310) 


>  <PLP.Chemscore.Internal.Correction>  (310) 


>  <PLP.Chemscore.Metal>  (310) 


>  <PLP.Fitness>  (310) 


>  <PLP.PLP>  (310) 


>  <PLP.ligand.clash>  (310) 


>  <PLP.ligand.torsion>  (310) 


>  <PLP.part.buried>  (310) 


>  <PLP.part.hbond>  (310) 


>  <PLP.part.metal>  (310) 


>  <PLP.part.nonpolar>  (310) 


>  <PLP.part.repulsive>  (310) 


>  <Version>  (310) 


$$$$
310|Compound_181|Compounds_3D_F|sdf|45|dock2|1
     RDKit          3D

 13 12  0  0  0  0  0  0  0  0999 V2000
   -9.3935  -15.8416    8.2066 O   0  0  0  0  0  0  0  0  0  0  0  0
   -9.4512  -16.9115    9.4178 S   0  0  0  0  0  0  0  0  0  0  0  0
  -10.7753  -17.4922    9.4245 O   0  0  0  0  0  0  0  0  0  0  0  0
   -8.2702  -17.7416    9.3538 O   0  0  0  0  0  0  0  0  0  0  0  0
   -9.3238  -15.9606   10.7939 N   0  0  0  0  0  0  0  0  0  0  0  0
   -8.1507  -15.2351   11.0861 C   0  0  0  0  0  0  0  0  0  0  0  0
   -7.1148  -15.4698   10.4667 O   0  0  0  0  0  0  0  0  0  0  0  0
   -8.2740  -14.1609   12.1764 C   0  0  0  0  0  0  0  0  0  0  0  0
   -9.6551  -14.1463   12.6888 N   0  0  0  0  0  0  0  0  0  0  0  0
   -7.8791  -12.7913   11.6060 C   0  0  0  0  0  0  0  0  0  0  0  0
   -6.8131  -12.0788   12.4508 C   0  0  0  0  0  0  0  0  0  0  0  0
   -5.5078  -12.8759   12.5007 C   0  0  0  0  0  0  0  0  0  0  0  0
   -4.5371  -12.2057   13.3597 N   0  0  0  0  0  0  0  0  0  0  0  0
  1  2  1  0
  2  3  2  0
  2  4  2  0
  2  5  1  0
  5  6  1  0
  6  7  2  0
  6  8  1  0
  8  9  1  0
  8 10  1  0
 10 11  1  0
 11 12  1  0
 12 13  1  0
M  END
>  <Gold.Gold.Protein.RotatedWaterAtoms>  (311) 


>  <Gold.Id.Protein>  (311) 


>  <Gold.PLP.Chemscore.CHOScore>  (311) 
0.0000

>  <Gold.PLP.Chemscore.Hbond>  (311) 
4.5600

>  <Gold.PLP.Chemscore.Internal.Correction>  (311) 
1.0300

>  <Gold.PLP.Chemscore.Metal>  (311) 
0.0000

>  <Gold.PLP.Fitness>  (311) 
44.9669

>  <Gold.PLP.PLP>  (311) 
-32.7604

>  <Gold.PLP.ligand.clash>  (311) 
0.0000

>  <Gold.PLP.ligand.torsion>  (311) 
1.2517

>  <Gold.PLP.part.buried>  (311) 
-6.6077

>  <Gold.PLP.part.hbond>  (311) 
-8.0000

>  <Gold.PLP.part.metal>  (311) 
0.0000

>  <Gold.PLP.part.nonpolar>  (311) 
-18.6221

>  <Gold.PLP.part.repulsive>  (311) 
0.0893

>  <Gold.Protein.RotatedAtoms>  (311) 


>  <Gold.Protein.RotatedTorsions>  (311) 


>  <Gold.Protein.RotatedWaterAtoms>  (311) 


>  <Gold.Version>  (311) 
5.3.0

>  <PLP.Chemscore.CHOScore>  (311) 


>  <PLP.Chemscore.Hbond>  (311) 


>  <PLP.Chemscore.Internal.Correction>  (311) 


>  <PLP.Chemscore.Metal>  (311) 


>  <PLP.Fitness>  (311) 


>  <PLP.PLP>  (311) 


>  <PLP.ligand.clash>  (311) 


>  <PLP.ligand.torsion>  (311) 


>  <PLP.part.buried>  (311) 


>  <PLP.part.hbond>  (311) 


>  <PLP.part.metal>  (311) 


>  <PLP.part.nonpolar>  (311) 


>  <PLP.part.repulsive>  (311) 


>  <Version>  (311) 


$$$$
311|Compound_181|Compounds_3D_F|sdf|45|dock3|1
     RDKit          3D

 13 12  0  0  0  0  0  0  0  0999 V2000
   -7.0324  -17.1826    9.1391 O   0  0  0  0  0  0  0  0  0  0  0  0
   -7.1490  -15.7948    8.3173 S   0  0  0  0  0  0  0  0  0  0  0  0
   -5.8297  -15.2053    8.2668 O   0  0  0  0  0  0  0  0  0  0  0  0
   -7.9070  -16.0375    7.1113 O   0  0  0  0  0  0  0  0  0  0  0  0
   -8.0852  -14.8214    9.3125 N   0  0  0  0  0  0  0  0  0  0  0  0
   -7.9606  -14.8615   10.7162 C   0  0  0  0  0  0  0  0  0  0  0  0
   -7.3365  -15.7765   11.2502 O   0  0  0  0  0  0  0  0  0  0  0  0
   -8.6195  -13.7082   11.4868 C   0  0  0  0  0  0  0  0  0  0  0  0
  -10.0004  -13.5300   11.0055 N   0  0  0  0  0  0  0  0  0  0  0  0
   -7.7984  -12.4238   11.3055 C   0  0  0  0  0  0  0  0  0  0  0  0
   -6.8747  -12.1337   12.4971 C   0  0  0  0  0  0  0  0  0  0  0  0
   -5.6504  -13.0519   12.4979 C   0  0  0  0  0  0  0  0  0  0  0  0
   -4.6102  -12.5090   13.3654 N   0  0  0  0  0  0  0  0  0  0  0  0
  1  2  1  0
  2  3  2  0
  2  4  2  0
  2  5  1  0
  5  6  1  0
  6  7  2  0
  6  8  1  0
  8  9  1  0
  8 10  1  0
 10 11  1  0
 11 12  1  0
 12 13  1  0
M  END
>  <Gold.Gold.Protein.RotatedWaterAtoms>  (312) 


>  <Gold.Id.Protein>  (312) 


>  <Gold.PLP.Chemscore.CHOScore>  (312) 
0.0000

>  <Gold.PLP.Chemscore.Hbond>  (312) 
5.8480

>  <Gold.PLP.Chemscore.Internal.Correction>  (312) 
1.0300

>  <Gold.PLP.Chemscore.Metal>  (312) 
0.0000

>  <Gold.PLP.Fitness>  (312) 
46.1304

>  <Gold.PLP.PLP>  (312) 
-30.6473

>  <Gold.PLP.ligand.clash>  (312) 
0.0000

>  <Gold.PLP.ligand.torsion>  (312) 
1.5454

>  <Gold.PLP.part.buried>  (312) 
-5.7003

>  <Gold.PLP.part.hbond>  (312) 
-6.6256

>  <Gold.PLP.part.metal>  (312) 
0.0000

>  <Gold.PLP.part.nonpolar>  (312) 
-16.9224

>  <Gold.PLP.part.repulsive>  (312) 
0.5641

>  <Gold.Protein.RotatedAtoms>  (312) 


>  <Gold.Protein.RotatedTorsions>  (312) 


>  <Gold.Protein.RotatedWaterAtoms>  (312) 


>  <Gold.Version>  (312) 
5.3.0

>  <PLP.Chemscore.CHOScore>  (312) 


>  <PLP.Chemscore.Hbond>  (312) 


>  <PLP.Chemscore.Internal.Correction>  (312) 


>  <PLP.Chemscore.Metal>  (312) 


>  <PLP.Fitness>  (312) 


>  <PLP.PLP>  (312) 


>  <PLP.ligand.clash>  (312) 


>  <PLP.ligand.torsion>  (312) 


>  <PLP.part.buried>  (312) 


>  <PLP.part.hbond>  (312) 


>  <PLP.part.metal>  (312) 


>  <PLP.part.nonpolar>  (312) 


>  <PLP.part.repulsive>  (312) 


>  <Version>  (312) 


$$$$
312|Compound_181|Compounds_3D_F|sdf|45|dock4|1
     RDKit          3D

 13 12  0  0  0  0  0  0  0  0999 V2000
  -11.5808  -18.6263   12.4982 O   0  0  0  0  0  0  0  0  0  0  0  0
  -10.5304  -18.0598   11.4069 S   0  0  0  0  0  0  0  0  0  0  0  0
   -9.3261  -18.8537   11.5072 O   0  0  0  0  0  0  0  0  0  0  0  0
  -11.2189  -17.9002   10.1466 O   0  0  0  0  0  0  0  0  0  0  0  0
  -10.1573  -16.5257   11.9742 N   0  0  0  0  0  0  0  0  0  0  0  0
   -8.8553  -15.9948   11.8704 C   0  0  0  0  0  0  0  0  0  0  0  0
   -7.9145  -16.7313   11.5800 O   0  0  0  0  0  0  0  0  0  0  0  0
   -8.7191  -14.4853   12.1167 C   0  0  0  0  0  0  0  0  0  0  0  0
   -9.5837  -13.7596   11.1700 N   0  0  0  0  0  0  0  0  0  0  0  0
   -7.2512  -14.0625   11.9639 C   0  0  0  0  0  0  0  0  0  0  0  0
   -7.0444  -12.5516   12.1430 C   0  0  0  0  0  0  0  0  0  0  0  0
   -5.5623  -12.1986   12.2873 C   0  0  0  0  0  0  0  0  0  0  0  0
   -4.9172  -13.0983   13.2380 N   0  0  0  0  0  0  0  0  0  0  0  0
  1  2  1  0
  2  3  2  0
  2  4  2  0
  2  5  1  0
  5  6  1  0
  6  7  2  0
  6  8  1  0
  8  9  1  0
  8 10  1  0
 10 11  1  0
 11 12  1  0
 12 13  1  0
M  END
>  <Gold.Gold.Protein.RotatedWaterAtoms>  (313) 


>  <Gold.Id.Protein>  (313) 


>  <Gold.PLP.Chemscore.CHOScore>  (313) 
0.0000

>  <Gold.PLP.Chemscore.Hbond>  (313) 
4.1104

>  <Gold.PLP.Chemscore.Internal.Correction>  (313) 
1.0300

>  <Gold.PLP.Chemscore.Metal>  (313) 
0.0000

>  <Gold.PLP.Fitness>  (313) 
44.4521

>  <Gold.PLP.PLP>  (313) 
-32.4399

>  <Gold.PLP.ligand.clash>  (313) 
0.0000

>  <Gold.PLP.ligand.torsion>  (313) 
0.6745

>  <Gold.PLP.part.buried>  (313) 
-7.3630

>  <Gold.PLP.part.hbond>  (313) 
-6.1840

>  <Gold.PLP.part.metal>  (313) 
0.0000

>  <Gold.PLP.part.nonpolar>  (313) 
-19.1083

>  <Gold.PLP.part.repulsive>  (313) 
0.2169

>  <Gold.Protein.RotatedAtoms>  (313) 


>  <Gold.Protein.RotatedTorsions>  (313) 


>  <Gold.Protein.RotatedWaterAtoms>  (313) 


>  <Gold.Version>  (313) 
5.3.0

>  <PLP.Chemscore.CHOScore>  (313) 


>  <PLP.Chemscore.Hbond>  (313) 


>  <PLP.Chemscore.Internal.Correction>  (313) 


>  <PLP.Chemscore.Metal>  (313) 


>  <PLP.Fitness>  (313) 


>  <PLP.PLP>  (313) 


>  <PLP.ligand.clash>  (313) 


>  <PLP.ligand.torsion>  (313) 


>  <PLP.part.buried>  (313) 


>  <PLP.part.hbond>  (313) 


>  <PLP.part.metal>  (313) 


>  <PLP.part.nonpolar>  (313) 


>  <PLP.part.repulsive>  (313) 


>  <Version>  (313) 


$$$$
313|Compound_181|Compounds_3D_F|sdf|45|dock5|1
     RDKit          3D

 13 12  0  0  0  0  0  0  0  0999 V2000
  -11.3747  -18.8439   12.3945 O   0  0  0  0  0  0  0  0  0  0  0  0
  -10.4667  -18.1850   11.2299 S   0  0  0  0  0  0  0  0  0  0  0  0
   -9.2611  -18.9752   11.1169 O   0  0  0  0  0  0  0  0  0  0  0  0
  -11.3059  -17.9316   10.0813 O   0  0  0  0  0  0  0  0  0  0  0  0
  -10.0225  -16.6977   11.8663 N   0  0  0  0  0  0  0  0  0  0  0  0
   -8.8094  -16.0734   11.5111 C   0  0  0  0  0  0  0  0  0  0  0  0
   -7.9437  -16.7109   10.9144 O   0  0  0  0  0  0  0  0  0  0  0  0
   -8.6738  -14.5924   11.8936 C   0  0  0  0  0  0  0  0  0  0  0  0
   -9.6003  -13.7930   11.0734 N   0  0  0  0  0  0  0  0  0  0  0  0
   -7.2218  -14.1339   11.6971 C   0  0  0  0  0  0  0  0  0  0  0  0
   -6.7782  -13.0968   12.7388 C   0  0  0  0  0  0  0  0  0  0  0  0
   -5.6557  -12.2049   12.2037 C   0  0  0  0  0  0  0  0  0  0  0  0
   -4.5376  -12.1799   13.1410 N   0  0  0  0  0  0  0  0  0  0  0  0
  1  2  1  0
  2  3  2  0
  2  4  2  0
  2  5  1  0
  5  6  1  0
  6  7  2  0
  6  8  1  0
  8  9  1  0
  8 10  1  0
 10 11  1  0
 11 12  1  0
 12 13  1  0
M  END
>  <Gold.Gold.Protein.RotatedWaterAtoms>  (314) 


>  <Gold.Id.Protein>  (314) 


>  <Gold.PLP.Chemscore.CHOScore>  (314) 
0.0000

>  <Gold.PLP.Chemscore.Hbond>  (314) 
5.4847

>  <Gold.PLP.Chemscore.Internal.Correction>  (314) 
1.0300

>  <Gold.PLP.Chemscore.Metal>  (314) 
0.0000

>  <Gold.PLP.Fitness>  (314) 
47.1566

>  <Gold.PLP.PLP>  (314) 
-33.1898

>  <Gold.PLP.ligand.clash>  (314) 
0.0000

>  <Gold.PLP.ligand.torsion>  (314) 
1.7587

>  <Gold.PLP.part.buried>  (314) 
-7.1076

>  <Gold.PLP.part.hbond>  (314) 
-7.9697

>  <Gold.PLP.part.metal>  (314) 
0.0000

>  <Gold.PLP.part.nonpolar>  (314) 
-18.0326

>  <Gold.PLP.part.repulsive>  (314) 
0.1553

>  <Gold.Protein.RotatedAtoms>  (314) 


>  <Gold.Protein.RotatedTorsions>  (314) 


>  <Gold.Protein.RotatedWaterAtoms>  (314) 


>  <Gold.Version>  (314) 
5.3.0

>  <PLP.Chemscore.CHOScore>  (314) 


>  <PLP.Chemscore.Hbond>  (314) 


>  <PLP.Chemscore.Internal.Correction>  (314) 


>  <PLP.Chemscore.Metal>  (314) 


>  <PLP.Fitness>  (314) 


>  <PLP.PLP>  (314) 


>  <PLP.ligand.clash>  (314) 


>  <PLP.ligand.torsion>  (314) 


>  <PLP.part.buried>  (314) 


>  <PLP.part.hbond>  (314) 


>  <PLP.part.metal>  (314) 


>  <PLP.part.nonpolar>  (314) 


>  <PLP.part.repulsive>  (314) 


>  <Version>  (314) 


$$$$
314|Compound_181|Compounds_3D_F|sdf|45|dock6|1
     RDKit          3D

 13 12  0  0  0  0  0  0  0  0999 V2000
  -11.5087  -17.8531   10.1927 O   0  0  0  0  0  0  0  0  0  0  0  0
  -10.4413  -18.2054   11.3554 S   0  0  0  0  0  0  0  0  0  0  0  0
  -11.1651  -18.8388   12.4350 O   0  0  0  0  0  0  0  0  0  0  0  0
   -9.2946  -18.8415   10.7485 O   0  0  0  0  0  0  0  0  0  0  0  0
   -9.9474  -16.7011   11.9099 N   0  0  0  0  0  0  0  0  0  0  0  0
   -8.7992  -16.0638   11.3969 C   0  0  0  0  0  0  0  0  0  0  0  0
   -8.0037  -16.6975   10.7058 O   0  0  0  0  0  0  0  0  0  0  0  0
   -8.6429  -14.5748   11.7381 C   0  0  0  0  0  0  0  0  0  0  0  0
   -9.5781  -13.7881   10.9155 N   0  0  0  0  0  0  0  0  0  0  0  0
   -7.1910  -14.1354   11.5020 C   0  0  0  0  0  0  0  0  0  0  0  0
   -6.6229  -13.3062   12.6627 C   0  0  0  0  0  0  0  0  0  0  0  0
   -5.3888  -12.5088   12.2349 C   0  0  0  0  0  0  0  0  0  0  0  0
   -4.5729  -12.1750   13.3977 N   0  0  0  0  0  0  0  0  0  0  0  0
  1  2  1  0
  2  3  2  0
  2  4  2  0
  2  5  1  0
  5  6  1  0
  6  7  2  0
  6  8  1  0
  8  9  1  0
  8 10  1  0
 10 11  1  0
 11 12  1  0
 12 13  1  0
M  END
>  <Gold.Gold.Protein.RotatedWaterAtoms>  (315) 


>  <Gold.Id.Protein>  (315) 


>  <Gold.PLP.Chemscore.CHOScore>  (315) 
0.0000

>  <Gold.PLP.Chemscore.Hbond>  (315) 
5.6089

>  <Gold.PLP.Chemscore.Internal.Correction>  (315) 
1.0246

>  <Gold.PLP.Chemscore.Metal>  (315) 
0.0000

>  <Gold.PLP.Fitness>  (315) 
47.0568

>  <Gold.PLP.PLP>  (315) 
-32.7855

>  <Gold.PLP.ligand.clash>  (315) 
0.0000

>  <Gold.PLP.ligand.torsion>  (315) 
1.7900

>  <Gold.PLP.part.buried>  (315) 
-7.0106

>  <Gold.PLP.part.hbond>  (315) 
-8.0000

>  <Gold.PLP.part.metal>  (315) 
0.0000

>  <Gold.PLP.part.nonpolar>  (315) 
-17.7184

>  <Gold.PLP.part.repulsive>  (315) 
0.1613

>  <Gold.Protein.RotatedAtoms>  (315) 


>  <Gold.Protein.RotatedTorsions>  (315) 


>  <Gold.Protein.RotatedWaterAtoms>  (315) 


>  <Gold.Version>  (315) 
5.3.0

>  <PLP.Chemscore.CHOScore>  (315) 


>  <PLP.Chemscore.Hbond>  (315) 


>  <PLP.Chemscore.Internal.Correction>  (315) 


>  <PLP.Chemscore.Metal>  (315) 


>  <PLP.Fitness>  (315) 


>  <PLP.PLP>  (315) 


>  <PLP.ligand.clash>  (315) 


>  <PLP.ligand.torsion>  (315) 


>  <PLP.part.buried>  (315) 


>  <PLP.part.hbond>  (315) 


>  <PLP.part.metal>  (315) 


>  <PLP.part.nonpolar>  (315) 


>  <PLP.part.repulsive>  (315) 


>  <Version>  (315) 


$$$$
315|Compound_181|Compounds_3D_F|sdf|45|dock7|1
     RDKit          3D

 13 12  0  0  0  0  0  0  0  0999 V2000
   -5.5018  -14.9940    8.2396 O   0  0  0  0  0  0  0  0  0  0  0  0
   -6.6954  -15.9623    8.7424 S   0  0  0  0  0  0  0  0  0  0  0  0
   -7.4130  -16.4147    7.5714 O   0  0  0  0  0  0  0  0  0  0  0  0
   -6.1534  -16.9015    9.6974 O   0  0  0  0  0  0  0  0  0  0  0  0
   -7.7192  -14.9291    9.5784 N   0  0  0  0  0  0  0  0  0  0  0  0
   -8.0964  -15.1814   10.9132 C   0  0  0  0  0  0  0  0  0  0  0  0
   -7.8765  -16.2824   11.4145 O   0  0  0  0  0  0  0  0  0  0  0  0
   -8.7541  -14.0134   11.6622 C   0  0  0  0  0  0  0  0  0  0  0  0
  -10.0002  -13.6357   10.9731 N   0  0  0  0  0  0  0  0  0  0  0  0
   -7.7808  -12.8286   11.7383 C   0  0  0  0  0  0  0  0  0  0  0  0
   -6.5390  -13.1312   12.5892 C   0  0  0  0  0  0  0  0  0  0  0  0
   -5.5069  -12.0048   12.5007 C   0  0  0  0  0  0  0  0  0  0  0  0
   -4.3843  -12.2746   13.3930 N   0  0  0  0  0  0  0  0  0  0  0  0
  1  2  1  0
  2  3  2  0
  2  4  2  0
  2  5  1  0
  5  6  1  0
  6  7  2  0
  6  8  1  0
  8  9  1  0
  8 10  1  0
 10 11  1  0
 11 12  1  0
 12 13  1  0
M  END
>  <Gold.Gold.Protein.RotatedWaterAtoms>  (316) 


>  <Gold.Id.Protein>  (316) 


>  <Gold.PLP.Chemscore.CHOScore>  (316) 
0.0000

>  <Gold.PLP.Chemscore.Hbond>  (316) 
3.9920

>  <Gold.PLP.Chemscore.Internal.Correction>  (316) 
1.0246

>  <Gold.PLP.Chemscore.Metal>  (316) 
0.0000

>  <Gold.PLP.Fitness>  (316) 
43.8634

>  <Gold.PLP.PLP>  (316) 
-32.0166

>  <Gold.PLP.ligand.clash>  (316) 
0.0000

>  <Gold.PLP.ligand.torsion>  (316) 
0.5769

>  <Gold.PLP.part.buried>  (316) 
-6.2244

>  <Gold.PLP.part.hbond>  (316) 
-6.6936

>  <Gold.PLP.part.metal>  (316) 
0.0000

>  <Gold.PLP.part.nonpolar>  (316) 
-19.1319

>  <Gold.PLP.part.repulsive>  (316) 
0.3447

>  <Gold.Protein.RotatedAtoms>  (316) 


>  <Gold.Protein.RotatedTorsions>  (316) 


>  <Gold.Protein.RotatedWaterAtoms>  (316) 


>  <Gold.Version>  (316) 
5.3.0

>  <PLP.Chemscore.CHOScore>  (316) 


>  <PLP.Chemscore.Hbond>  (316) 


>  <PLP.Chemscore.Internal.Correction>  (316) 


>  <PLP.Chemscore.Metal>  (316) 


>  <PLP.Fitness>  (316) 


>  <PLP.PLP>  (316) 


>  <PLP.ligand.clash>  (316) 


>  <PLP.ligand.torsion>  (316) 


>  <PLP.part.buried>  (316) 


>  <PLP.part.hbond>  (316) 


>  <PLP.part.metal>  (316) 


>  <PLP.part.nonpolar>  (316) 


>  <PLP.part.repulsive>  (316) 


>  <Version>  (316) 


$$$$
316|Compound_181|Compounds_3D_F|sdf|45|dock8|1
     RDKit          3D

 13 12  0  0  0  0  0  0  0  0999 V2000
  -10.4642  -17.0502    9.6732 O   0  0  0  0  0  0  0  0  0  0  0  0
   -9.5747  -17.7392   10.8347 S   0  0  0  0  0  0  0  0  0  0  0  0
  -10.4343  -18.6453   11.5632 O   0  0  0  0  0  0  0  0  0  0  0  0
   -8.3314  -18.1916   10.2536 O   0  0  0  0  0  0  0  0  0  0  0  0
   -9.2141  -16.4665   11.8664 N   0  0  0  0  0  0  0  0  0  0  0  0
   -8.6185  -15.2784   11.3958 C   0  0  0  0  0  0  0  0  0  0  0  0
   -8.1340  -15.2415   10.2663 O   0  0  0  0  0  0  0  0  0  0  0  0
   -8.6440  -14.0820   12.3581 C   0  0  0  0  0  0  0  0  0  0  0  0
  -10.0161  -13.8927   12.8600 N   0  0  0  0  0  0  0  0  0  0  0  0
   -8.1374  -12.8237   11.6392 C   0  0  0  0  0  0  0  0  0  0  0  0
   -6.9442  -12.1703   12.3511 C   0  0  0  0  0  0  0  0  0  0  0  0
   -5.7395  -13.1120   12.4121 C   0  0  0  0  0  0  0  0  0  0  0  0
   -4.6310  -12.4723   13.1132 N   0  0  0  0  0  0  0  0  0  0  0  0
  1  2  1  0
  2  3  2  0
  2  4  2  0
  2  5  1  0
  5  6  1  0
  6  7  2  0
  6  8  1  0
  8  9  1  0
  8 10  1  0
 10 11  1  0
 11 12  1  0
 12 13  1  0
M  END
>  <Gold.Gold.Protein.RotatedWaterAtoms>  (317) 


>  <Gold.Id.Protein>  (317) 


>  <Gold.PLP.Chemscore.CHOScore>  (317) 
0.0000

>  <Gold.PLP.Chemscore.Hbond>  (317) 
3.9675

>  <Gold.PLP.Chemscore.Internal.Correction>  (317) 
1.0144

>  <Gold.PLP.Chemscore.Metal>  (317) 
0.0000

>  <Gold.PLP.Fitness>  (317) 
43.5371

>  <Gold.PLP.PLP>  (317) 
-33.4768

>  <Gold.PLP.ligand.clash>  (317) 
0.0000

>  <Gold.PLP.ligand.torsion>  (317) 
1.4282

>  <Gold.PLP.part.buried>  (317) 
-7.0769

>  <Gold.PLP.part.hbond>  (317) 
-7.8806

>  <Gold.PLP.part.metal>  (317) 
0.0000

>  <Gold.PLP.part.nonpolar>  (317) 
-19.7599

>  <Gold.PLP.part.repulsive>  (317) 
0.1889

>  <Gold.Protein.RotatedAtoms>  (317) 


>  <Gold.Protein.RotatedTorsions>  (317) 


>  <Gold.Protein.RotatedWaterAtoms>  (317) 


>  <Gold.Version>  (317) 
5.3.0

>  <PLP.Chemscore.CHOScore>  (317) 


>  <PLP.Chemscore.Hbond>  (317) 


>  <PLP.Chemscore.Internal.Correction>  (317) 


>  <PLP.Chemscore.Metal>  (317) 


>  <PLP.Fitness>  (317) 


>  <PLP.PLP>  (317) 


>  <PLP.ligand.clash>  (317) 


>  <PLP.ligand.torsion>  (317) 


>  <PLP.part.buried>  (317) 


>  <PLP.part.hbond>  (317) 


>  <PLP.part.metal>  (317) 


>  <PLP.part.nonpolar>  (317) 


>  <PLP.part.repulsive>  (317) 


>  <Version>  (317) 


$$$$
317|Compound_181|Compounds_3D_F|sdf|45|dock9|1
     RDKit          3D

 13 12  0  0  0  0  0  0  0  0999 V2000
  -10.7788  -18.8276   11.6419 O   0  0  0  0  0  0  0  0  0  0  0  0
   -9.7218  -18.0503   10.6966 S   0  0  0  0  0  0  0  0  0  0  0  0
   -8.4193  -18.6350   10.9256 O   0  0  0  0  0  0  0  0  0  0  0  0
  -10.2772  -17.9579    9.3659 O   0  0  0  0  0  0  0  0  0  0  0  0
   -9.6842  -16.4993   11.3349 N   0  0  0  0  0  0  0  0  0  0  0  0
   -8.5050  -15.7265   11.3325 C   0  0  0  0  0  0  0  0  0  0  0  0
   -7.4249  -16.2574   11.0806 O   0  0  0  0  0  0  0  0  0  0  0  0
   -8.6762  -14.2307   11.6345 C   0  0  0  0  0  0  0  0  0  0  0  0
   -9.7828  -13.6957   10.8225 N   0  0  0  0  0  0  0  0  0  0  0  0
   -7.3649  -13.4868   11.3446 C   0  0  0  0  0  0  0  0  0  0  0  0
   -6.4706  -13.3497   12.5851 C   0  0  0  0  0  0  0  0  0  0  0  0
   -5.5302  -12.1477   12.4722 C   0  0  0  0  0  0  0  0  0  0  0  0
   -4.4419  -12.2631   13.4372 N   0  0  0  0  0  0  0  0  0  0  0  0
  1  2  1  0
  2  3  2  0
  2  4  2  0
  2  5  1  0
  5  6  1  0
  6  7  2  0
  6  8  1  0
  8  9  1  0
  8 10  1  0
 10 11  1  0
 11 12  1  0
 12 13  1  0
M  END
>  <Gold.Gold.Protein.RotatedWaterAtoms>  (318) 


>  <Gold.Id.Protein>  (318) 


>  <Gold.PLP.Chemscore.CHOScore>  (318) 
0.0000

>  <Gold.PLP.Chemscore.Hbond>  (318) 
4.1792

>  <Gold.PLP.Chemscore.Internal.Correction>  (318) 
1.0144

>  <Gold.PLP.Chemscore.Metal>  (318) 
0.0000

>  <Gold.PLP.Fitness>  (318) 
42.3577

>  <Gold.PLP.PLP>  (318) 
-31.7531

>  <Gold.PLP.ligand.clash>  (318) 
0.0000

>  <Gold.PLP.ligand.torsion>  (318) 
1.4737

>  <Gold.PLP.part.buried>  (318) 
-7.3128

>  <Gold.PLP.part.hbond>  (318) 
-5.9196

>  <Gold.PLP.part.metal>  (318) 
0.0000

>  <Gold.PLP.part.nonpolar>  (318) 
-18.3954

>  <Gold.PLP.part.repulsive>  (318) 
0.0802

>  <Gold.Protein.RotatedAtoms>  (318) 


>  <Gold.Protein.RotatedTorsions>  (318) 


>  <Gold.Protein.RotatedWaterAtoms>  (318) 


>  <Gold.Version>  (318) 
5.3.0

>  <PLP.Chemscore.CHOScore>  (318) 


>  <PLP.Chemscore.Hbond>  (318) 


>  <PLP.Chemscore.Internal.Correction>  (318) 


>  <PLP.Chemscore.Metal>  (318) 


>  <PLP.Fitness>  (318) 


>  <PLP.PLP>  (318) 


>  <PLP.ligand.clash>  (318) 


>  <PLP.ligand.torsion>  (318) 


>  <PLP.part.buried>  (318) 


>  <PLP.part.hbond>  (318) 


>  <PLP.part.metal>  (318) 


>  <PLP.part.nonpolar>  (318) 


>  <PLP.part.repulsive>  (318) 


>  <Version>  (318) 


$$$$
318|Compound_183|Compounds_3D_F|sdf|46|dock1|1
     RDKit          3D

 16 15  0  0  0  0  0  0  0  0999 V2000
  -11.5713  -19.6900   12.4583 O   0  0  0  0  0  0  0  0  0  0  0  0
  -11.0867  -18.5555   11.9151 C   0  0  0  0  0  0  0  0  0  0  0  0
  -11.3546  -17.4564   12.3788 O   0  0  0  0  0  0  0  0  0  0  0  0
  -10.2029  -18.8156   10.7168 C   0  0  0  0  0  0  0  0  0  0  0  0
   -9.9012  -17.5536   10.0622 N   0  0  0  0  0  0  0  0  0  0  0  0
   -9.2064  -17.5108    8.8757 C   0  0  0  0  0  0  0  0  0  0  0  0
   -8.8012  -18.5160    8.2914 O   0  0  0  0  0  0  0  0  0  0  0  0
   -8.9905  -16.1014    8.3121 C   0  0  0  0  0  0  0  0  0  0  0  0
   -9.1499  -15.1812    9.4293 N   0  0  0  0  0  0  0  0  0  0  0  0
   -8.2439  -15.0821   10.4630 C   0  0  0  0  0  0  0  0  0  0  0  0
   -7.2175  -15.7542   10.5412 O   0  0  0  0  0  0  0  0  0  0  0  0
   -8.6361  -14.0445   11.5199 C   0  0  0  0  0  0  0  0  0  0  0  0
   -9.9041  -13.3846   11.1307 N   0  0  0  0  0  0  0  0  0  0  0  0
   -7.5032  -13.0133   11.6650 C   0  0  0  0  0  0  0  0  0  0  0  0
   -6.2353  -13.6764   11.9731 N   0  0  0  0  0  0  0  0  0  0  0  0
   -7.6065  -15.9913    7.6854 C   0  0  0  0  0  0  0  0  0  0  0  0
  1  2  1  0
  2  3  2  0
  2  4  1  0
  4  5  1  0
  5  6  1  0
  6  7  2  0
  6  8  1  0
  8  9  1  0
  8 16  1  0
  9 10  1  0
 10 11  2  0
 10 12  1  0
 12 13  1  0
 12 14  1  0
 14 15  1  0
M  END
>  <Gold.Gold.Protein.RotatedWaterAtoms>  (319) 


>  <Gold.Id.Protein>  (319) 


>  <Gold.PLP.Chemscore.CHOScore>  (319) 
0.0000

>  <Gold.PLP.Chemscore.Hbond>  (319) 
3.6385

>  <Gold.PLP.Chemscore.Internal.Correction>  (319) 
0.1147

>  <Gold.PLP.Chemscore.Metal>  (319) 
0.0000

>  <Gold.PLP.Fitness>  (319) 
42.7396

>  <Gold.PLP.PLP>  (319) 
-33.3089

>  <Gold.PLP.ligand.clash>  (319) 
0.0000

>  <Gold.PLP.ligand.torsion>  (319) 
0.7998

>  <Gold.PLP.part.buried>  (319) 
-6.4134

>  <Gold.PLP.part.hbond>  (319) 
-7.8927

>  <Gold.PLP.part.metal>  (319) 
0.0000

>  <Gold.PLP.part.nonpolar>  (319) 
-19.2002

>  <Gold.PLP.part.repulsive>  (319) 
0.1880

>  <Gold.Protein.RotatedAtoms>  (319) 


>  <Gold.Protein.RotatedTorsions>  (319) 


>  <Gold.Protein.RotatedWaterAtoms>  (319) 


>  <Gold.Version>  (319) 
5.3.0

>  <PLP.Chemscore.CHOScore>  (319) 


>  <PLP.Chemscore.Hbond>  (319) 


>  <PLP.Chemscore.Internal.Correction>  (319) 


>  <PLP.Chemscore.Metal>  (319) 


>  <PLP.Fitness>  (319) 


>  <PLP.PLP>  (319) 


>  <PLP.ligand.clash>  (319) 


>  <PLP.ligand.torsion>  (319) 


>  <PLP.part.buried>  (319) 


>  <PLP.part.hbond>  (319) 


>  <PLP.part.metal>  (319) 


>  <PLP.part.nonpolar>  (319) 


>  <PLP.part.repulsive>  (319) 


>  <Version>  (319) 


$$$$
319|Compound_183|Compounds_3D_F|sdf|46|dock2|1
     RDKit          3D

 16 15  0  0  0  0  0  0  0  0999 V2000
   -1.2636  -18.2531    7.6674 O   0  0  0  0  0  0  0  0  0  0  0  0
   -1.7991  -17.6534    8.7493 C   0  0  0  0  0  0  0  0  0  0  0  0
   -1.1301  -17.4029    9.7415 O   0  0  0  0  0  0  0  0  0  0  0  0
   -3.2675  -17.3404    8.5737 C   0  0  0  0  0  0  0  0  0  0  0  0
   -3.7508  -16.6379    9.7506 N   0  0  0  0  0  0  0  0  0  0  0  0
   -4.6031  -17.2423   10.6454 C   0  0  0  0  0  0  0  0  0  0  0  0
   -5.0076  -18.3986   10.5204 O   0  0  0  0  0  0  0  0  0  0  0  0
   -5.0003  -16.3677   11.8402 C   0  0  0  0  0  0  0  0  0  0  0  0
   -6.4398  -16.1696   11.7464 N   0  0  0  0  0  0  0  0  0  0  0  0
   -7.0153  -14.9909   11.3237 C   0  0  0  0  0  0  0  0  0  0  0  0
   -6.3740  -13.9988   10.9834 O   0  0  0  0  0  0  0  0  0  0  0  0
   -8.5470  -15.0291   11.3152 C   0  0  0  0  0  0  0  0  0  0  0  0
   -9.0445  -14.9476    9.9221 N   0  0  0  0  0  0  0  0  0  0  0  0
   -9.0893  -13.8631   12.1603 C   0  0  0  0  0  0  0  0  0  0  0  0
  -10.2997  -14.2634   12.8793 N   0  0  0  0  0  0  0  0  0  0  0  0
   -4.6101  -17.0501   13.1450 C   0  0  0  0  0  0  0  0  0  0  0  0
  1  2  1  0
  2  3  2  0
  2  4  1  0
  4  5  1  0
  5  6  1  0
  6  7  2  0
  6  8  1  0
  8  9  1  0
  8 16  1  0
  9 10  1  0
 10 11  2  0
 10 12  1  0
 12 13  1  0
 12 14  1  0
 14 15  1  0
M  END
>  <Gold.Gold.Protein.RotatedWaterAtoms>  (320) 


>  <Gold.Id.Protein>  (320) 


>  <Gold.PLP.Chemscore.CHOScore>  (320) 
0.0000

>  <Gold.PLP.Chemscore.Hbond>  (320) 
4.7480

>  <Gold.PLP.Chemscore.Internal.Correction>  (320) 
0.1147

>  <Gold.PLP.Chemscore.Metal>  (320) 
0.0000

>  <Gold.PLP.Fitness>  (320) 
45.0297

>  <Gold.PLP.PLP>  (320) 
-32.3123

>  <Gold.PLP.ligand.clash>  (320) 
0.0000

>  <Gold.PLP.ligand.torsion>  (320) 
0.8207

>  <Gold.PLP.part.buried>  (320) 
-6.2516

>  <Gold.PLP.part.hbond>  (320) 
-8.0000

>  <Gold.PLP.part.metal>  (320) 
0.0000

>  <Gold.PLP.part.nonpolar>  (320) 
-18.0458

>  <Gold.PLP.part.repulsive>  (320) 
0.3700

>  <Gold.Protein.RotatedAtoms>  (320) 


>  <Gold.Protein.RotatedTorsions>  (320) 


>  <Gold.Protein.RotatedWaterAtoms>  (320) 


>  <Gold.Version>  (320) 
5.3.0

>  <PLP.Chemscore.CHOScore>  (320) 


>  <PLP.Chemscore.Hbond>  (320) 


>  <PLP.Chemscore.Internal.Correction>  (320) 


>  <PLP.Chemscore.Metal>  (320) 


>  <PLP.Fitness>  (320) 


>  <PLP.PLP>  (320) 


>  <PLP.ligand.clash>  (320) 


>  <PLP.ligand.torsion>  (320) 


>  <PLP.part.buried>  (320) 


>  <PLP.part.hbond>  (320) 


>  <PLP.part.metal>  (320) 


>  <PLP.part.nonpolar>  (320) 


>  <PLP.part.repulsive>  (320) 


>  <Version>  (320) 


$$$$
320|Compound_183|Compounds_3D_F|sdf|46|dock3|1
     RDKit          3D

 16 15  0  0  0  0  0  0  0  0999 V2000
  -12.2436  -19.5479   10.9638 O   0  0  0  0  0  0  0  0  0  0  0  0
  -11.5921  -18.5724   11.6278 C   0  0  0  0  0  0  0  0  0  0  0  0
  -12.1691  -17.8350   12.4140 O   0  0  0  0  0  0  0  0  0  0  0  0
  -10.1197  -18.5221   11.2898 C   0  0  0  0  0  0  0  0  0  0  0  0
   -9.8191  -17.2524   10.6497 N   0  0  0  0  0  0  0  0  0  0  0  0
   -8.5475  -16.9504   10.2204 C   0  0  0  0  0  0  0  0  0  0  0  0
   -7.5920  -17.7177   10.3406 O   0  0  0  0  0  0  0  0  0  0  0  0
   -8.4082  -15.5788    9.5499 C   0  0  0  0  0  0  0  0  0  0  0  0
   -7.7095  -14.7241   10.4994 N   0  0  0  0  0  0  0  0  0  0  0  0
   -8.2865  -14.2501   11.6577 C   0  0  0  0  0  0  0  0  0  0  0  0
   -9.4391  -14.5035   12.0023 O   0  0  0  0  0  0  0  0  0  0  0  0
   -7.3494  -13.3677   12.4888 C   0  0  0  0  0  0  0  0  0  0  0  0
   -7.2876  -12.0084   11.9030 N   0  0  0  0  0  0  0  0  0  0  0  0
   -5.9519  -14.0102   12.5324 C   0  0  0  0  0  0  0  0  0  0  0  0
   -4.9726  -13.0826   13.1005 N   0  0  0  0  0  0  0  0  0  0  0  0
   -7.6419  -15.7085    8.2398 C   0  0  0  0  0  0  0  0  0  0  0  0
  1  2  1  0
  2  3  2  0
  2  4  1  0
  4  5  1  0
  5  6  1  0
  6  7  2  0
  6  8  1  0
  8  9  1  0
  8 16  1  0
  9 10  1  0
 10 11  2  0
 10 12  1  0
 12 13  1  0
 12 14  1  0
 14 15  1  0
M  END
>  <Gold.Gold.Protein.RotatedWaterAtoms>  (321) 


>  <Gold.Id.Protein>  (321) 


>  <Gold.PLP.Chemscore.CHOScore>  (321) 
0.0000

>  <Gold.PLP.Chemscore.Hbond>  (321) 
4.7020

>  <Gold.PLP.Chemscore.Internal.Correction>  (321) 
0.0748

>  <Gold.PLP.Chemscore.Metal>  (321) 
0.0000

>  <Gold.PLP.Fitness>  (321) 
46.1391

>  <Gold.PLP.PLP>  (321) 
-33.9178

>  <Gold.PLP.ligand.clash>  (321) 
0.0000

>  <Gold.PLP.ligand.torsion>  (321) 
0.9798

>  <Gold.PLP.part.buried>  (321) 
-7.9931

>  <Gold.PLP.part.hbond>  (321) 
-5.9921

>  <Gold.PLP.part.metal>  (321) 
0.0000

>  <Gold.PLP.part.nonpolar>  (321) 
-20.4112

>  <Gold.PLP.part.repulsive>  (321) 
0.2960

>  <Gold.Protein.RotatedAtoms>  (321) 


>  <Gold.Protein.RotatedTorsions>  (321) 


>  <Gold.Protein.RotatedWaterAtoms>  (321) 


>  <Gold.Version>  (321) 
5.3.0

>  <PLP.Chemscore.CHOScore>  (321) 


>  <PLP.Chemscore.Hbond>  (321) 


>  <PLP.Chemscore.Internal.Correction>  (321) 


>  <PLP.Chemscore.Metal>  (321) 


>  <PLP.Fitness>  (321) 


>  <PLP.PLP>  (321) 


>  <PLP.ligand.clash>  (321) 


>  <PLP.ligand.torsion>  (321) 


>  <PLP.part.buried>  (321) 


>  <PLP.part.hbond>  (321) 


>  <PLP.part.metal>  (321) 


>  <PLP.part.nonpolar>  (321) 


>  <PLP.part.repulsive>  (321) 


>  <Version>  (321) 


$$$$
321|Compound_183|Compounds_3D_F|sdf|46|dock4|1
     RDKit          3D

 16 15  0  0  0  0  0  0  0  0999 V2000
  -12.4101  -17.6834   12.5017 O   0  0  0  0  0  0  0  0  0  0  0  0
  -12.2878  -18.5034   11.4388 C   0  0  0  0  0  0  0  0  0  0  0  0
  -13.2652  -18.9785   10.8787 O   0  0  0  0  0  0  0  0  0  0  0  0
  -10.8467  -18.7376   11.0477 C   0  0  0  0  0  0  0  0  0  0  0  0
  -10.2199  -17.4617   10.7450 N   0  0  0  0  0  0  0  0  0  0  0  0
   -8.8776  -17.3739   10.4571 C   0  0  0  0  0  0  0  0  0  0  0  0
   -8.1253  -18.3484   10.4312 O   0  0  0  0  0  0  0  0  0  0  0  0
   -8.3829  -15.9574   10.1424 C   0  0  0  0  0  0  0  0  0  0  0  0
   -7.3237  -15.6680   11.0987 N   0  0  0  0  0  0  0  0  0  0  0  0
   -6.1357  -16.3648   11.1458 C   0  0  0  0  0  0  0  0  0  0  0  0
   -5.8542  -17.2908   10.3878 O   0  0  0  0  0  0  0  0  0  0  0  0
   -5.1843  -15.8744   12.2422 C   0  0  0  0  0  0  0  0  0  0  0  0
   -4.8983  -14.4333   12.0522 N   0  0  0  0  0  0  0  0  0  0  0  0
   -3.8876  -16.7015   12.1974 C   0  0  0  0  0  0  0  0  0  0  0  0
   -3.1721  -16.4757   10.9407 N   0  0  0  0  0  0  0  0  0  0  0  0
   -7.8803  -15.8821    8.7063 C   0  0  0  0  0  0  0  0  0  0  0  0
  1  2  1  0
  2  3  2  0
  2  4  1  0
  4  5  1  0
  5  6  1  0
  6  7  2  0
  6  8  1  0
  8  9  1  0
  8 16  1  0
  9 10  1  0
 10 11  2  0
 10 12  1  0
 12 13  1  0
 12 14  1  0
 14 15  1  0
M  END
>  <Gold.Gold.Protein.RotatedWaterAtoms>  (322) 


>  <Gold.Id.Protein>  (322) 


>  <Gold.PLP.Chemscore.CHOScore>  (322) 
0.0000

>  <Gold.PLP.Chemscore.Hbond>  (322) 
4.0000

>  <Gold.PLP.Chemscore.Internal.Correction>  (322) 
0.0748

>  <Gold.PLP.Chemscore.Metal>  (322) 
0.0000

>  <Gold.PLP.Fitness>  (322) 
40.9264

>  <Gold.PLP.PLP>  (322) 
-28.9679

>  <Gold.PLP.ligand.clash>  (322) 
0.0000

>  <Gold.PLP.ligand.torsion>  (322) 
0.0582

>  <Gold.PLP.part.buried>  (322) 
-5.4761

>  <Gold.PLP.part.hbond>  (322) 
-7.0000

>  <Gold.PLP.part.metal>  (322) 
0.0000

>  <Gold.PLP.part.nonpolar>  (322) 
-16.1620

>  <Gold.PLP.part.repulsive>  (322) 
0.1479

>  <Gold.Protein.RotatedAtoms>  (322) 


>  <Gold.Protein.RotatedTorsions>  (322) 


>  <Gold.Protein.RotatedWaterAtoms>  (322) 


>  <Gold.Version>  (322) 
5.3.0

>  <PLP.Chemscore.CHOScore>  (322) 


>  <PLP.Chemscore.Hbond>  (322) 


>  <PLP.Chemscore.Internal.Correction>  (322) 


>  <PLP.Chemscore.Metal>  (322) 


>  <PLP.Fitness>  (322) 


>  <PLP.PLP>  (322) 


>  <PLP.ligand.clash>  (322) 


>  <PLP.ligand.torsion>  (322) 


>  <PLP.part.buried>  (322) 


>  <PLP.part.hbond>  (322) 


>  <PLP.part.metal>  (322) 


>  <PLP.part.nonpolar>  (322) 


>  <PLP.part.repulsive>  (322) 


>  <Version>  (322) 


$$$$
322|Compound_183|Compounds_3D_F|sdf|46|dock5|1
     RDKit          3D

 16 15  0  0  0  0  0  0  0  0999 V2000
  -11.9141  -19.8077   12.2554 O   0  0  0  0  0  0  0  0  0  0  0  0
  -11.3352  -18.6427   11.9022 C   0  0  0  0  0  0  0  0  0  0  0  0
  -11.5932  -17.5965   12.4798 O   0  0  0  0  0  0  0  0  0  0  0  0
  -10.3641  -18.8002   10.7546 C   0  0  0  0  0  0  0  0  0  0  0  0
   -9.8854  -17.4890   10.3498 N   0  0  0  0  0  0  0  0  0  0  0  0
   -8.6613  -17.3298    9.7427 C   0  0  0  0  0  0  0  0  0  0  0  0
   -7.8992  -18.2658    9.4992 O   0  0  0  0  0  0  0  0  0  0  0  0
   -8.3192  -15.8843    9.3637 C   0  0  0  0  0  0  0  0  0  0  0  0
   -7.2059  -15.4869   10.2139 N   0  0  0  0  0  0  0  0  0  0  0  0
   -7.2259  -14.3623   11.0102 C   0  0  0  0  0  0  0  0  0  0  0  0
   -8.1806  -13.5912   11.0828 O   0  0  0  0  0  0  0  0  0  0  0  0
   -5.9340  -14.1572   11.8081 C   0  0  0  0  0  0  0  0  0  0  0  0
   -5.7399  -15.2846   12.7494 N   0  0  0  0  0  0  0  0  0  0  0  0
   -6.0100  -12.8189   12.5635 C   0  0  0  0  0  0  0  0  0  0  0  0
   -4.7246  -12.5025   13.1878 N   0  0  0  0  0  0  0  0  0  0  0  0
   -7.9574  -15.7989    7.8864 C   0  0  0  0  0  0  0  0  0  0  0  0
  1  2  1  0
  2  3  2  0
  2  4  1  0
  4  5  1  0
  5  6  1  0
  6  7  2  0
  6  8  1  0
  8  9  1  0
  8 16  1  0
  9 10  1  0
 10 11  2  0
 10 12  1  0
 12 13  1  0
 12 14  1  0
 14 15  1  0
M  END
>  <Gold.Gold.Protein.RotatedWaterAtoms>  (323) 


>  <Gold.Id.Protein>  (323) 


>  <Gold.PLP.Chemscore.CHOScore>  (323) 
0.0000

>  <Gold.PLP.Chemscore.Hbond>  (323) 
3.8564

>  <Gold.PLP.Chemscore.Internal.Correction>  (323) 
0.0748

>  <Gold.PLP.Chemscore.Metal>  (323) 
0.0000

>  <Gold.PLP.Fitness>  (323) 
43.2978

>  <Gold.PLP.PLP>  (323) 
-32.4710

>  <Gold.PLP.ligand.clash>  (323) 
0.0000

>  <Gold.PLP.ligand.torsion>  (323) 
0.4087

>  <Gold.PLP.part.buried>  (323) 
-8.5868

>  <Gold.PLP.part.hbond>  (323) 
-6.0000

>  <Gold.PLP.part.metal>  (323) 
0.0000

>  <Gold.PLP.part.nonpolar>  (323) 
-19.3457

>  <Gold.PLP.part.repulsive>  (323) 
0.2625

>  <Gold.Protein.RotatedAtoms>  (323) 


>  <Gold.Protein.RotatedTorsions>  (323) 


>  <Gold.Protein.RotatedWaterAtoms>  (323) 


>  <Gold.Version>  (323) 
5.3.0

>  <PLP.Chemscore.CHOScore>  (323) 


>  <PLP.Chemscore.Hbond>  (323) 


>  <PLP.Chemscore.Internal.Correction>  (323) 


>  <PLP.Chemscore.Metal>  (323) 


>  <PLP.Fitness>  (323) 


>  <PLP.PLP>  (323) 


>  <PLP.ligand.clash>  (323) 


>  <PLP.ligand.torsion>  (323) 


>  <PLP.part.buried>  (323) 


>  <PLP.part.hbond>  (323) 


>  <PLP.part.metal>  (323) 


>  <PLP.part.nonpolar>  (323) 


>  <PLP.part.repulsive>  (323) 


>  <Version>  (323) 


$$$$
323|Compound_183|Compounds_3D_F|sdf|46|dock6|1
     RDKit          3D

 16 15  0  0  0  0  0  0  0  0999 V2000
   -4.8458  -13.8027   12.2375 O   0  0  0  0  0  0  0  0  0  0  0  0
   -5.4921  -14.9839   12.1739 C   0  0  0  0  0  0  0  0  0  0  0  0
   -4.8869  -16.0446   12.1157 O   0  0  0  0  0  0  0  0  0  0  0  0
   -6.9953  -14.8261   12.1917 C   0  0  0  0  0  0  0  0  0  0  0  0
   -7.6145  -16.1137   11.9251 N   0  0  0  0  0  0  0  0  0  0  0  0
   -8.9821  -16.2614   11.9124 C   0  0  0  0  0  0  0  0  0  0  0  0
   -9.7655  -15.3338   12.1176 O   0  0  0  0  0  0  0  0  0  0  0  0
   -9.4686  -17.6804   11.5961 C   0  0  0  0  0  0  0  0  0  0  0  0
  -10.9233  -17.6386   11.6449 N   0  0  0  0  0  0  0  0  0  0  0  0
  -11.7072  -18.7600   11.8103 C   0  0  0  0  0  0  0  0  0  0  0  0
  -11.2581  -19.8975   11.9352 O   0  0  0  0  0  0  0  0  0  0  0  0
  -13.2091  -18.4569   11.8251 C   0  0  0  0  0  0  0  0  0  0  0  0
  -13.8117  -18.9624   13.0806 N   0  0  0  0  0  0  0  0  0  0  0  0
  -13.8712  -19.1077   10.5981 C   0  0  0  0  0  0  0  0  0  0  0  0
  -14.7630  -20.1943   11.0058 N   0  0  0  0  0  0  0  0  0  0  0  0
   -8.9639  -18.1170   10.2268 C   0  0  0  0  0  0  0  0  0  0  0  0
  1  2  1  0
  2  3  2  0
  2  4  1  0
  4  5  1  0
  5  6  1  0
  6  7  2  0
  6  8  1  0
  8  9  1  0
  8 16  1  0
  9 10  1  0
 10 11  2  0
 10 12  1  0
 12 13  1  0
 12 14  1  0
 14 15  1  0
M  END
>  <Gold.Gold.Protein.RotatedWaterAtoms>  (324) 


>  <Gold.Id.Protein>  (324) 


>  <Gold.PLP.Chemscore.CHOScore>  (324) 
0.0000

>  <Gold.PLP.Chemscore.Hbond>  (324) 
4.1440

>  <Gold.PLP.Chemscore.Internal.Correction>  (324) 
0.0748

>  <Gold.PLP.Chemscore.Metal>  (324) 
0.0000

>  <Gold.PLP.Fitness>  (324) 
44.3261

>  <Gold.PLP.PLP>  (324) 
-34.0286

>  <Gold.PLP.ligand.clash>  (324) 
0.0000

>  <Gold.PLP.ligand.torsion>  (324) 
1.1047

>  <Gold.PLP.part.buried>  (324) 
-8.5677

>  <Gold.PLP.part.hbond>  (324) 
-5.4968

>  <Gold.PLP.part.metal>  (324) 
0.0000

>  <Gold.PLP.part.nonpolar>  (324) 
-20.6994

>  <Gold.PLP.part.repulsive>  (324) 
0.4285

>  <Gold.Protein.RotatedAtoms>  (324) 


>  <Gold.Protein.RotatedTorsions>  (324) 


>  <Gold.Protein.RotatedWaterAtoms>  (324) 


>  <Gold.Version>  (324) 
5.3.0

>  <PLP.Chemscore.CHOScore>  (324) 


>  <PLP.Chemscore.Hbond>  (324) 


>  <PLP.Chemscore.Internal.Correction>  (324) 


>  <PLP.Chemscore.Metal>  (324) 


>  <PLP.Fitness>  (324) 


>  <PLP.PLP>  (324) 


>  <PLP.ligand.clash>  (324) 


>  <PLP.ligand.torsion>  (324) 


>  <PLP.part.buried>  (324) 


>  <PLP.part.hbond>  (324) 


>  <PLP.part.metal>  (324) 


>  <PLP.part.nonpolar>  (324) 


>  <PLP.part.repulsive>  (324) 


>  <Version>  (324) 


$$$$
324|Compound_183|Compounds_3D_F|sdf|46|dock7|1
     RDKit          3D

 16 15  0  0  0  0  0  0  0  0999 V2000
  -11.4181  -19.8216   12.6804 O   0  0  0  0  0  0  0  0  0  0  0  0
  -11.0297  -18.6402   12.1602 C   0  0  0  0  0  0  0  0  0  0  0  0
  -11.5705  -17.5905   12.4770 O   0  0  0  0  0  0  0  0  0  0  0  0
   -9.8841  -18.7828   11.1845 C   0  0  0  0  0  0  0  0  0  0  0  0
   -9.6250  -17.4962   10.5599 N   0  0  0  0  0  0  0  0  0  0  0  0
   -8.4021  -17.2049   10.0016 C   0  0  0  0  0  0  0  0  0  0  0  0
   -7.4586  -17.9960    9.9864 O   0  0  0  0  0  0  0  0  0  0  0  0
   -8.3041  -15.8120    9.3686 C   0  0  0  0  0  0  0  0  0  0  0  0
   -7.1377  -15.1711    9.9592 N   0  0  0  0  0  0  0  0  0  0  0  0
   -7.1462  -14.5869   11.2074 C   0  0  0  0  0  0  0  0  0  0  0  0
   -8.1321  -14.5526   11.9410 O   0  0  0  0  0  0  0  0  0  0  0  0
   -5.7980  -13.9763   11.6038 C   0  0  0  0  0  0  0  0  0  0  0  0
   -4.7787  -15.0444   11.7262 N   0  0  0  0  0  0  0  0  0  0  0  0
   -5.9558  -13.2141   12.9311 C   0  0  0  0  0  0  0  0  0  0  0  0
   -4.7194  -12.5099   13.2743 N   0  0  0  0  0  0  0  0  0  0  0  0
   -8.1758  -15.9292    7.8552 C   0  0  0  0  0  0  0  0  0  0  0  0
  1  2  1  0
  2  3  2  0
  2  4  1  0
  4  5  1  0
  5  6  1  0
  6  7  2  0
  6  8  1  0
  8  9  1  0
  8 16  1  0
  9 10  1  0
 10 11  2  0
 10 12  1  0
 12 13  1  0
 12 14  1  0
 14 15  1  0
M  END
>  <Gold.Gold.Protein.RotatedWaterAtoms>  (325) 


>  <Gold.Id.Protein>  (325) 


>  <Gold.PLP.Chemscore.CHOScore>  (325) 
0.0000

>  <Gold.PLP.Chemscore.Hbond>  (325) 
4.6440

>  <Gold.PLP.Chemscore.Internal.Correction>  (325) 
0.0748

>  <Gold.PLP.Chemscore.Metal>  (325) 
0.0000

>  <Gold.PLP.Fitness>  (325) 
44.5059

>  <Gold.PLP.PLP>  (325) 
-31.8036

>  <Gold.PLP.ligand.clash>  (325) 
0.0000

>  <Gold.PLP.ligand.torsion>  (325) 
0.6522

>  <Gold.PLP.part.buried>  (325) 
-4.8830

>  <Gold.PLP.part.hbond>  (325) 
-7.5195

>  <Gold.PLP.part.metal>  (325) 
0.0000

>  <Gold.PLP.part.nonpolar>  (325) 
-20.1184

>  <Gold.PLP.part.repulsive>  (325) 
0.2644

>  <Gold.Protein.RotatedAtoms>  (325) 


>  <Gold.Protein.RotatedTorsions>  (325) 


>  <Gold.Protein.RotatedWaterAtoms>  (325) 


>  <Gold.Version>  (325) 
5.3.0

>  <PLP.Chemscore.CHOScore>  (325) 


>  <PLP.Chemscore.Hbond>  (325) 


>  <PLP.Chemscore.Internal.Correction>  (325) 


>  <PLP.Chemscore.Metal>  (325) 


>  <PLP.Fitness>  (325) 


>  <PLP.PLP>  (325) 


>  <PLP.ligand.clash>  (325) 


>  <PLP.ligand.torsion>  (325) 


>  <PLP.part.buried>  (325) 


>  <PLP.part.hbond>  (325) 


>  <PLP.part.metal>  (325) 


>  <PLP.part.nonpolar>  (325) 


>  <PLP.part.repulsive>  (325) 


>  <Version>  (325) 


$$$$
325|Compound_183|Compounds_3D_F|sdf|46|dock8|1
     RDKit          3D

 16 15  0  0  0  0  0  0  0  0999 V2000
  -14.4988  -19.9766    8.4921 O   0  0  0  0  0  0  0  0  0  0  0  0
  -13.9584  -18.9694    9.2065 C   0  0  0  0  0  0  0  0  0  0  0  0
  -14.1345  -17.7988    8.9006 O   0  0  0  0  0  0  0  0  0  0  0  0
  -13.1503  -19.4608   10.3856 C   0  0  0  0  0  0  0  0  0  0  0  0
  -11.7630  -19.0632   10.2135 N   0  0  0  0  0  0  0  0  0  0  0  0
  -11.1196  -18.2865   11.1489 C   0  0  0  0  0  0  0  0  0  0  0  0
  -11.6581  -17.8827   12.1801 O   0  0  0  0  0  0  0  0  0  0  0  0
   -9.6545  -17.9748   10.8221 C   0  0  0  0  0  0  0  0  0  0  0  0
   -9.2905  -16.8149   11.6236 N   0  0  0  0  0  0  0  0  0  0  0  0
   -8.7970  -15.6469   11.0837 C   0  0  0  0  0  0  0  0  0  0  0  0
   -8.6200  -15.4698    9.8801 O   0  0  0  0  0  0  0  0  0  0  0  0
   -8.4852  -14.5745   12.1327 C   0  0  0  0  0  0  0  0  0  0  0  0
   -9.7468  -14.0425   12.6985 N   0  0  0  0  0  0  0  0  0  0  0  0
   -7.6596  -13.4512   11.4815 C   0  0  0  0  0  0  0  0  0  0  0  0
   -6.3813  -13.9665   10.9889 N   0  0  0  0  0  0  0  0  0  0  0  0
   -8.7764  -19.1777   11.1418 C   0  0  0  0  0  0  0  0  0  0  0  0
  1  2  1  0
  2  3  2  0
  2  4  1  0
  4  5  1  0
  5  6  1  0
  6  7  2  0
  6  8  1  0
  8  9  1  0
  8 16  1  0
  9 10  1  0
 10 11  2  0
 10 12  1  0
 12 13  1  0
 12 14  1  0
 14 15  1  0
M  END
>  <Gold.Gold.Protein.RotatedWaterAtoms>  (326) 


>  <Gold.Id.Protein>  (326) 


>  <Gold.PLP.Chemscore.CHOScore>  (326) 
0.0000

>  <Gold.PLP.Chemscore.Hbond>  (326) 
3.9913

>  <Gold.PLP.Chemscore.Internal.Correction>  (326) 
0.0544

>  <Gold.PLP.Chemscore.Metal>  (326) 
0.0000

>  <Gold.PLP.Fitness>  (326) 
42.9356

>  <Gold.PLP.PLP>  (326) 
-32.5142

>  <Gold.PLP.ligand.clash>  (326) 
0.0000

>  <Gold.PLP.ligand.torsion>  (326) 
0.8033

>  <Gold.PLP.part.buried>  (326) 
-3.8645

>  <Gold.PLP.part.hbond>  (326) 
-7.8228

>  <Gold.PLP.part.metal>  (326) 
0.0000

>  <Gold.PLP.part.nonpolar>  (326) 
-20.7516

>  <Gold.PLP.part.repulsive>  (326) 
0.3413

>  <Gold.Protein.RotatedAtoms>  (326) 


>  <Gold.Protein.RotatedTorsions>  (326) 


>  <Gold.Protein.RotatedWaterAtoms>  (326) 


>  <Gold.Version>  (326) 
5.3.0

>  <PLP.Chemscore.CHOScore>  (326) 


>  <PLP.Chemscore.Hbond>  (326) 


>  <PLP.Chemscore.Internal.Correction>  (326) 


>  <PLP.Chemscore.Metal>  (326) 


>  <PLP.Fitness>  (326) 


>  <PLP.PLP>  (326) 


>  <PLP.ligand.clash>  (326) 


>  <PLP.ligand.torsion>  (326) 


>  <PLP.part.buried>  (326) 


>  <PLP.part.hbond>  (326) 


>  <PLP.part.metal>  (326) 


>  <PLP.part.nonpolar>  (326) 


>  <PLP.part.repulsive>  (326) 


>  <Version>  (326) 


$$$$
326|Compound_183|Compounds_3D_F|sdf|46|dock9|1
     RDKit          3D

 16 15  0  0  0  0  0  0  0  0999 V2000
   -4.7877  -15.0238   11.6294 O   0  0  0  0  0  0  0  0  0  0  0  0
   -6.0691  -15.0415   11.2116 C   0  0  0  0  0  0  0  0  0  0  0  0
   -6.3961  -14.5886   10.1241 O   0  0  0  0  0  0  0  0  0  0  0  0
   -7.0008  -15.6747   12.2195 C   0  0  0  0  0  0  0  0  0  0  0  0
   -7.7316  -16.7568   11.5812 N   0  0  0  0  0  0  0  0  0  0  0  0
   -9.1061  -16.8051   11.6067 C   0  0  0  0  0  0  0  0  0  0  0  0
   -9.8038  -15.9522   12.1564 O   0  0  0  0  0  0  0  0  0  0  0  0
   -9.7173  -18.0025   10.8697 C   0  0  0  0  0  0  0  0  0  0  0  0
  -11.1505  -17.9550   11.1222 N   0  0  0  0  0  0  0  0  0  0  0  0
  -11.8825  -19.0470   11.5358 C   0  0  0  0  0  0  0  0  0  0  0  0
  -11.3997  -20.1601   11.7339 O   0  0  0  0  0  0  0  0  0  0  0  0
  -13.3720  -18.7446   11.7296 C   0  0  0  0  0  0  0  0  0  0  0  0
  -13.8223  -19.2572   13.0446 N   0  0  0  0  0  0  0  0  0  0  0  0
  -14.1746  -19.3888   10.5857 C   0  0  0  0  0  0  0  0  0  0  0  0
  -14.0565  -20.8471   10.6271 N   0  0  0  0  0  0  0  0  0  0  0  0
   -9.4052  -17.9196    9.3810 C   0  0  0  0  0  0  0  0  0  0  0  0
  1  2  1  0
  2  3  2  0
  2  4  1  0
  4  5  1  0
  5  6  1  0
  6  7  2  0
  6  8  1  0
  8  9  1  0
  8 16  1  0
  9 10  1  0
 10 11  2  0
 10 12  1  0
 12 13  1  0
 12 14  1  0
 14 15  1  0
M  END
>  <Gold.Gold.Protein.RotatedWaterAtoms>  (327) 


>  <Gold.Id.Protein>  (327) 


>  <Gold.PLP.Chemscore.CHOScore>  (327) 
0.0000

>  <Gold.PLP.Chemscore.Hbond>  (327) 
3.6832

>  <Gold.PLP.Chemscore.Internal.Correction>  (327) 
0.0544

>  <Gold.PLP.Chemscore.Metal>  (327) 
0.0000

>  <Gold.PLP.Fitness>  (327) 
39.9856

>  <Gold.PLP.PLP>  (327) 
-29.8656

>  <Gold.PLP.ligand.clash>  (327) 
0.0000

>  <Gold.PLP.ligand.torsion>  (327) 
0.4919

>  <Gold.PLP.part.buried>  (327) 
-6.4250

>  <Gold.PLP.part.hbond>  (327) 
-5.0178

>  <Gold.PLP.part.metal>  (327) 
0.0000

>  <Gold.PLP.part.nonpolar>  (327) 
-18.1890

>  <Gold.PLP.part.repulsive>  (327) 
0.3535

>  <Gold.Protein.RotatedAtoms>  (327) 


>  <Gold.Protein.RotatedTorsions>  (327) 


>  <Gold.Protein.RotatedWaterAtoms>  (327) 


>  <Gold.Version>  (327) 
5.3.0

>  <PLP.Chemscore.CHOScore>  (327) 


>  <PLP.Chemscore.Hbond>  (327) 


>  <PLP.Chemscore.Internal.Correction>  (327) 


>  <PLP.Chemscore.Metal>  (327) 


>  <PLP.Fitness>  (327) 


>  <PLP.PLP>  (327) 


>  <PLP.ligand.clash>  (327) 


>  <PLP.ligand.torsion>  (327) 


>  <PLP.part.buried>  (327) 


>  <PLP.part.hbond>  (327) 


>  <PLP.part.metal>  (327) 


>  <PLP.part.nonpolar>  (327) 


>  <PLP.part.repulsive>  (327) 


>  <Version>  (327) 


$$$$
327|Compound_184|Compounds_3D_F|sdf|47|dock1|1
     RDKit          3D

 13 12  0  0  0  0  0  0  0  0999 V2000
  -11.5562  -20.0017   13.2965 O   0  0  0  0  0  0  0  0  0  0  0  0
  -10.8601  -19.8452   12.1566 C   0  0  0  0  0  0  0  0  0  0  0  0
  -10.2840  -20.7845   11.6248 O   0  0  0  0  0  0  0  0  0  0  0  0
  -10.8495  -18.4259   11.6237 C   0  0  0  0  0  0  0  0  0  0  0  0
  -11.6535  -17.5955   12.4747 O   0  0  0  0  0  0  0  0  0  0  0  0
   -9.4241  -17.8789   11.5910 C   0  0  0  0  0  0  0  0  0  0  0  0
   -9.4021  -16.4273   11.6500 N   0  0  0  0  0  0  0  0  0  0  0  0
   -8.2486  -15.6765   11.7439 C   0  0  0  0  0  0  0  0  0  0  0  0
   -7.1195  -16.1575   11.7484 O   0  0  0  0  0  0  0  0  0  0  0  0
   -8.5252  -14.1752   11.9302 C   0  0  0  0  0  0  0  0  0  0  0  0
   -9.4291  -13.6900   10.8590 N   0  0  0  0  0  0  0  0  0  0  0  0
   -7.2093  -13.3765   12.0100 C   0  0  0  0  0  0  0  0  0  0  0  0
   -6.2283  -13.8025   11.0009 N   0  0  0  0  0  0  0  0  0  0  0  0
  1  2  1  0
  2  3  2  0
  2  4  1  0
  4  5  1  0
  4  6  1  0
  6  7  1  0
  7  8  1  0
  8  9  2  0
  8 10  1  0
 10 11  1  0
 10 12  1  0
 12 13  1  0
M  END
>  <Gold.Gold.Protein.RotatedWaterAtoms>  (328) 


>  <Gold.Id.Protein>  (328) 


>  <Gold.PLP.Chemscore.CHOScore>  (328) 
0.0000

>  <Gold.PLP.Chemscore.Hbond>  (328) 
3.0361

>  <Gold.PLP.Chemscore.Internal.Correction>  (328) 
0.1596

>  <Gold.PLP.Chemscore.Metal>  (328) 
0.0000

>  <Gold.PLP.Fitness>  (328) 
38.3696

>  <Gold.PLP.PLP>  (328) 
-30.1572

>  <Gold.PLP.ligand.clash>  (328) 
0.0000

>  <Gold.PLP.ligand.torsion>  (328) 
0.5277

>  <Gold.PLP.part.buried>  (328) 
-5.6702

>  <Gold.PLP.part.hbond>  (328) 
-7.1115

>  <Gold.PLP.part.metal>  (328) 
0.0000

>  <Gold.PLP.part.nonpolar>  (328) 
-16.3930

>  <Gold.PLP.part.repulsive>  (328) 
0.1333

>  <Gold.Protein.RotatedAtoms>  (328) 


>  <Gold.Protein.RotatedTorsions>  (328) 


>  <Gold.Protein.RotatedWaterAtoms>  (328) 


>  <Gold.Version>  (328) 
5.3.0

>  <PLP.Chemscore.CHOScore>  (328) 


>  <PLP.Chemscore.Hbond>  (328) 


>  <PLP.Chemscore.Internal.Correction>  (328) 


>  <PLP.Chemscore.Metal>  (328) 


>  <PLP.Fitness>  (328) 


>  <PLP.PLP>  (328) 


>  <PLP.ligand.clash>  (328) 


>  <PLP.ligand.torsion>  (328) 


>  <PLP.part.buried>  (328) 


>  <PLP.part.hbond>  (328) 


>  <PLP.part.metal>  (328) 


>  <PLP.part.nonpolar>  (328) 


>  <PLP.part.repulsive>  (328) 


>  <Version>  (328) 


$$$$
328|Compound_184|Compounds_3D_F|sdf|47|dock2|1
     RDKit          3D

 13 12  0  0  0  0  0  0  0  0999 V2000
  -11.4696  -19.9922   13.1327 O   0  0  0  0  0  0  0  0  0  0  0  0
  -10.7253  -19.8358   12.0237 C   0  0  0  0  0  0  0  0  0  0  0  0
  -10.1365  -20.7776   11.5105 O   0  0  0  0  0  0  0  0  0  0  0  0
  -10.6790  -18.4136   11.5006 C   0  0  0  0  0  0  0  0  0  0  0  0
  -11.4495  -17.5664   12.3659 O   0  0  0  0  0  0  0  0  0  0  0  0
   -9.2387  -17.9080   11.4564 C   0  0  0  0  0  0  0  0  0  0  0  0
   -9.1784  -16.4656   11.2919 N   0  0  0  0  0  0  0  0  0  0  0  0
   -8.0048  -15.7413   11.2607 C   0  0  0  0  0  0  0  0  0  0  0  0
   -6.8886  -16.2467   11.3301 O   0  0  0  0  0  0  0  0  0  0  0  0
   -8.2401  -14.2221   11.2166 C   0  0  0  0  0  0  0  0  0  0  0  0
   -6.9451  -13.5129   11.0756 N   0  0  0  0  0  0  0  0  0  0  0  0
   -9.0493  -13.7523   12.4415 C   0  0  0  0  0  0  0  0  0  0  0  0
  -10.1611  -14.6586   12.7649 N   0  0  0  0  0  0  0  0  0  0  0  0
  1  2  1  0
  2  3  2  0
  2  4  1  0
  4  5  1  0
  4  6  1  0
  6  7  1  0
  7  8  1  0
  8  9  2  0
  8 10  1  0
 10 11  1  0
 10 12  1  0
 12 13  1  0
M  END
>  <Gold.Gold.Protein.RotatedWaterAtoms>  (329) 


>  <Gold.Id.Protein>  (329) 


>  <Gold.PLP.Chemscore.CHOScore>  (329) 
0.0000

>  <Gold.PLP.Chemscore.Hbond>  (329) 
3.7294

>  <Gold.PLP.Chemscore.Internal.Correction>  (329) 
0.0914

>  <Gold.PLP.Chemscore.Metal>  (329) 
0.0000

>  <Gold.PLP.Fitness>  (329) 
39.0946

>  <Gold.PLP.PLP>  (329) 
-28.3692

>  <Gold.PLP.ligand.clash>  (329) 
0.0000

>  <Gold.PLP.ligand.torsion>  (329) 
0.2770

>  <Gold.PLP.part.buried>  (329) 
-5.2304

>  <Gold.PLP.part.hbond>  (329) 
-7.9717

>  <Gold.PLP.part.metal>  (329) 
0.0000

>  <Gold.PLP.part.nonpolar>  (329) 
-16.0770

>  <Gold.PLP.part.repulsive>  (329) 
0.0678

>  <Gold.Protein.RotatedAtoms>  (329) 


>  <Gold.Protein.RotatedTorsions>  (329) 


>  <Gold.Protein.RotatedWaterAtoms>  (329) 


>  <Gold.Version>  (329) 
5.3.0

>  <PLP.Chemscore.CHOScore>  (329) 


>  <PLP.Chemscore.Hbond>  (329) 


>  <PLP.Chemscore.Internal.Correction>  (329) 


>  <PLP.Chemscore.Metal>  (329) 


>  <PLP.Fitness>  (329) 


>  <PLP.PLP>  (329) 


>  <PLP.ligand.clash>  (329) 


>  <PLP.ligand.torsion>  (329) 


>  <PLP.part.buried>  (329) 


>  <PLP.part.hbond>  (329) 


>  <PLP.part.metal>  (329) 


>  <PLP.part.nonpolar>  (329) 


>  <PLP.part.repulsive>  (329) 


>  <Version>  (329) 


$$$$
329|Compound_184|Compounds_3D_F|sdf|47|dock3|1
     RDKit          3D

 13 12  0  0  0  0  0  0  0  0999 V2000
  -11.8507  -19.4146   12.8398 O   0  0  0  0  0  0  0  0  0  0  0  0
  -11.0393  -19.3881   11.7678 C   0  0  0  0  0  0  0  0  0  0  0  0
  -10.8023  -20.3986   11.1198 O   0  0  0  0  0  0  0  0  0  0  0  0
  -10.4537  -18.0231   11.4640 C   0  0  0  0  0  0  0  0  0  0  0  0
  -10.9237  -17.0797   12.4382 O   0  0  0  0  0  0  0  0  0  0  0  0
   -8.9282  -18.0744   11.5110 C   0  0  0  0  0  0  0  0  0  0  0  0
   -8.3350  -16.7899   11.1807 N   0  0  0  0  0  0  0  0  0  0  0  0
   -6.9764  -16.5527   11.1501 C   0  0  0  0  0  0  0  0  0  0  0  0
   -6.1281  -17.4141   11.3615 O   0  0  0  0  0  0  0  0  0  0  0  0
   -6.6324  -15.0735   10.9080 C   0  0  0  0  0  0  0  0  0  0  0  0
   -6.0215  -14.9086    9.5665 N   0  0  0  0  0  0  0  0  0  0  0  0
   -5.7463  -14.5195   12.0411 C   0  0  0  0  0  0  0  0  0  0  0  0
   -4.3364  -14.9116   11.8982 N   0  0  0  0  0  0  0  0  0  0  0  0
  1  2  1  0
  2  3  2  0
  2  4  1  0
  4  5  1  0
  4  6  1  0
  6  7  1  0
  7  8  1  0
  8  9  2  0
  8 10  1  0
 10 11  1  0
 10 12  1  0
 12 13  1  0
M  END
>  <Gold.Gold.Protein.RotatedWaterAtoms>  (330) 


>  <Gold.Id.Protein>  (330) 


>  <Gold.PLP.Chemscore.CHOScore>  (330) 
0.0000

>  <Gold.PLP.Chemscore.Hbond>  (330) 
4.8640

>  <Gold.PLP.Chemscore.Internal.Correction>  (330) 
0.0689

>  <Gold.PLP.Chemscore.Metal>  (330) 
0.0000

>  <Gold.PLP.Fitness>  (330) 
40.1953

>  <Gold.PLP.PLP>  (330) 
-26.0856

>  <Gold.PLP.ligand.clash>  (330) 
0.0000

>  <Gold.PLP.ligand.torsion>  (330) 
0.2756

>  <Gold.PLP.part.buried>  (330) 
-5.1317

>  <Gold.PLP.part.hbond>  (330) 
-7.0000

>  <Gold.PLP.part.metal>  (330) 
0.0000

>  <Gold.PLP.part.nonpolar>  (330) 
-14.0122

>  <Gold.PLP.part.repulsive>  (330) 
0.0335

>  <Gold.Protein.RotatedAtoms>  (330) 


>  <Gold.Protein.RotatedTorsions>  (330) 


>  <Gold.Protein.RotatedWaterAtoms>  (330) 


>  <Gold.Version>  (330) 
5.3.0

>  <PLP.Chemscore.CHOScore>  (330) 


>  <PLP.Chemscore.Hbond>  (330) 


>  <PLP.Chemscore.Internal.Correction>  (330) 


>  <PLP.Chemscore.Metal>  (330) 


>  <PLP.Fitness>  (330) 


>  <PLP.PLP>  (330) 


>  <PLP.ligand.clash>  (330) 


>  <PLP.ligand.torsion>  (330) 


>  <PLP.part.buried>  (330) 


>  <PLP.part.hbond>  (330) 


>  <PLP.part.metal>  (330) 


>  <PLP.part.nonpolar>  (330) 


>  <PLP.part.repulsive>  (330) 


>  <Version>  (330) 


$$$$
330|Compound_184|Compounds_3D_F|sdf|47|dock4|1
     RDKit          3D

 13 12  0  0  0  0  0  0  0  0999 V2000
  -10.8702  -19.6560   12.1035 O   0  0  0  0  0  0  0  0  0  0  0  0
  -10.6128  -18.3545   11.8841 C   0  0  0  0  0  0  0  0  0  0  0  0
  -11.2661  -17.4731   12.4256 O   0  0  0  0  0  0  0  0  0  0  0  0
   -9.4758  -18.0999   10.9141 C   0  0  0  0  0  0  0  0  0  0  0  0
   -9.9711  -17.3580    9.7896 O   0  0  0  0  0  0  0  0  0  0  0  0
   -8.3649  -17.3008   11.5920 C   0  0  0  0  0  0  0  0  0  0  0  0
   -8.7192  -15.8989   11.7348 N   0  0  0  0  0  0  0  0  0  0  0  0
   -7.8199  -14.8599   11.6137 C   0  0  0  0  0  0  0  0  0  0  0  0
   -6.6345  -15.0120   11.3344 O   0  0  0  0  0  0  0  0  0  0  0  0
   -8.4369  -13.4921   11.9504 C   0  0  0  0  0  0  0  0  0  0  0  0
   -9.5494  -13.1943   11.0157 N   0  0  0  0  0  0  0  0  0  0  0  0
   -7.3600  -12.3895   11.9693 C   0  0  0  0  0  0  0  0  0  0  0  0
   -6.1965  -12.7508   12.7926 N   0  0  0  0  0  0  0  0  0  0  0  0
  1  2  1  0
  2  3  2  0
  2  4  1  0
  4  5  1  0
  4  6  1  0
  6  7  1  0
  7  8  1  0
  8  9  2  0
  8 10  1  0
 10 11  1  0
 10 12  1  0
 12 13  1  0
M  END
>  <Gold.Gold.Protein.RotatedWaterAtoms>  (331) 


>  <Gold.Id.Protein>  (331) 


>  <Gold.PLP.Chemscore.CHOScore>  (331) 
0.0000

>  <Gold.PLP.Chemscore.Hbond>  (331) 
3.1229

>  <Gold.PLP.Chemscore.Internal.Correction>  (331) 
0.0689

>  <Gold.PLP.Chemscore.Metal>  (331) 
0.0000

>  <Gold.PLP.Fitness>  (331) 
37.9983

>  <Gold.PLP.PLP>  (331) 
-29.2678

>  <Gold.PLP.ligand.clash>  (331) 
0.0000

>  <Gold.PLP.ligand.torsion>  (331) 
0.3536

>  <Gold.PLP.part.buried>  (331) 
-6.9609

>  <Gold.PLP.part.hbond>  (331) 
-5.6419

>  <Gold.PLP.part.metal>  (331) 
0.0000

>  <Gold.PLP.part.nonpolar>  (331) 
-16.9235

>  <Gold.PLP.part.repulsive>  (331) 
0.1783

>  <Gold.Protein.RotatedAtoms>  (331) 


>  <Gold.Protein.RotatedTorsions>  (331) 


>  <Gold.Protein.RotatedWaterAtoms>  (331) 


>  <Gold.Version>  (331) 
5.3.0

>  <PLP.Chemscore.CHOScore>  (331) 


>  <PLP.Chemscore.Hbond>  (331) 


>  <PLP.Chemscore.Internal.Correction>  (331) 


>  <PLP.Chemscore.Metal>  (331) 


>  <PLP.Fitness>  (331) 


>  <PLP.PLP>  (331) 


>  <PLP.ligand.clash>  (331) 


>  <PLP.ligand.torsion>  (331) 


>  <PLP.part.buried>  (331) 


>  <PLP.part.hbond>  (331) 


>  <PLP.part.metal>  (331) 


>  <PLP.part.nonpolar>  (331) 


>  <PLP.part.repulsive>  (331) 


>  <Version>  (331) 


$$$$
331|Compound_184|Compounds_3D_F|sdf|47|dock5|1
     RDKit          3D

 13 12  0  0  0  0  0  0  0  0999 V2000
  -11.2145  -20.0429   13.0119 O   0  0  0  0  0  0  0  0  0  0  0  0
  -10.4559  -19.7305   11.9464 C   0  0  0  0  0  0  0  0  0  0  0  0
   -9.7354  -20.5605   11.4088 O   0  0  0  0  0  0  0  0  0  0  0  0
  -10.5695  -18.2849   11.5038 C   0  0  0  0  0  0  0  0  0  0  0  0
  -11.4608  -17.5887   12.3876 O   0  0  0  0  0  0  0  0  0  0  0  0
   -9.2010  -17.6079   11.5363 C   0  0  0  0  0  0  0  0  0  0  0  0
   -9.3160  -16.1655   11.6675 N   0  0  0  0  0  0  0  0  0  0  0  0
   -8.2483  -15.2959   11.5851 C   0  0  0  0  0  0  0  0  0  0  0  0
   -7.0961  -15.6496   11.3536 O   0  0  0  0  0  0  0  0  0  0  0  0
   -8.6356  -13.8411   11.8993 C   0  0  0  0  0  0  0  0  0  0  0  0
   -9.7304  -13.4028   10.9999 N   0  0  0  0  0  0  0  0  0  0  0  0
   -7.4043  -12.9158   11.8381 C   0  0  0  0  0  0  0  0  0  0  0  0
   -6.3625  -13.2978   12.8029 N   0  0  0  0  0  0  0  0  0  0  0  0
  1  2  1  0
  2  3  2  0
  2  4  1  0
  4  5  1  0
  4  6  1  0
  6  7  1  0
  7  8  1  0
  8  9  2  0
  8 10  1  0
 10 11  1  0
 10 12  1  0
 12 13  1  0
M  END
>  <Gold.Gold.Protein.RotatedWaterAtoms>  (332) 


>  <Gold.Id.Protein>  (332) 


>  <Gold.PLP.Chemscore.CHOScore>  (332) 
0.0000

>  <Gold.PLP.Chemscore.Hbond>  (332) 
3.8000

>  <Gold.PLP.Chemscore.Internal.Correction>  (332) 
0.0689

>  <Gold.PLP.Chemscore.Metal>  (332) 
0.0000

>  <Gold.PLP.Fitness>  (332) 
40.5155

>  <Gold.PLP.PLP>  (332) 
-29.7039

>  <Gold.PLP.ligand.clash>  (332) 
0.0000

>  <Gold.PLP.ligand.torsion>  (332) 
0.3287

>  <Gold.PLP.part.buried>  (332) 
-6.9415

>  <Gold.PLP.part.hbond>  (332) 
-5.9628

>  <Gold.PLP.part.metal>  (332) 
0.0000

>  <Gold.PLP.part.nonpolar>  (332) 
-16.6768

>  <Gold.PLP.part.repulsive>  (332) 
0.1346

>  <Gold.Protein.RotatedAtoms>  (332) 


>  <Gold.Protein.RotatedTorsions>  (332) 


>  <Gold.Protein.RotatedWaterAtoms>  (332) 


>  <Gold.Version>  (332) 
5.3.0

>  <PLP.Chemscore.CHOScore>  (332) 


>  <PLP.Chemscore.Hbond>  (332) 


>  <PLP.Chemscore.Internal.Correction>  (332) 


>  <PLP.Chemscore.Metal>  (332) 


>  <PLP.Fitness>  (332) 


>  <PLP.PLP>  (332) 


>  <PLP.ligand.clash>  (332) 


>  <PLP.ligand.torsion>  (332) 


>  <PLP.part.buried>  (332) 


>  <PLP.part.hbond>  (332) 


>  <PLP.part.metal>  (332) 


>  <PLP.part.nonpolar>  (332) 


>  <PLP.part.repulsive>  (332) 


>  <Version>  (332) 


$$$$
332|Compound_184|Compounds_3D_F|sdf|47|dock6|1
     RDKit          3D

 13 12  0  0  0  0  0  0  0  0999 V2000
   -5.2402  -15.2481    8.9444 O   0  0  0  0  0  0  0  0  0  0  0  0
   -5.7756  -16.1267    9.8102 C   0  0  0  0  0  0  0  0  0  0  0  0
   -6.9773  -16.3565    9.8274 O   0  0  0  0  0  0  0  0  0  0  0  0
   -4.7706  -16.7708   10.7448 C   0  0  0  0  0  0  0  0  0  0  0  0
   -3.4426  -16.4737   10.2882 O   0  0  0  0  0  0  0  0  0  0  0  0
   -4.9437  -16.2364   12.1649 C   0  0  0  0  0  0  0  0  0  0  0  0
   -4.8376  -14.7881   12.2127 N   0  0  0  0  0  0  0  0  0  0  0  0
   -5.9164  -13.9399   12.3533 C   0  0  0  0  0  0  0  0  0  0  0  0
   -7.0738  -14.3245   12.4914 O   0  0  0  0  0  0  0  0  0  0  0  0
   -5.5309  -12.4561   12.2326 C   0  0  0  0  0  0  0  0  0  0  0  0
   -4.5596  -12.0971   13.2946 N   0  0  0  0  0  0  0  0  0  0  0  0
   -6.7831  -11.5573   12.2385 C   0  0  0  0  0  0  0  0  0  0  0  0
   -6.4992  -10.1906   11.7764 N   0  0  0  0  0  0  0  0  0  0  0  0
  1  2  1  0
  2  3  2  0
  2  4  1  0
  4  5  1  0
  4  6  1  0
  6  7  1  0
  7  8  1  0
  8  9  2  0
  8 10  1  0
 10 11  1  0
 10 12  1  0
 12 13  1  0
M  END
>  <Gold.Gold.Protein.RotatedWaterAtoms>  (333) 


>  <Gold.Id.Protein>  (333) 


>  <Gold.PLP.Chemscore.CHOScore>  (333) 
0.0000

>  <Gold.PLP.Chemscore.Hbond>  (333) 
6.1500

>  <Gold.PLP.Chemscore.Internal.Correction>  (333) 
0.0689

>  <Gold.PLP.Chemscore.Metal>  (333) 
0.0000

>  <Gold.PLP.Fitness>  (333) 
50.4527

>  <Gold.PLP.PLP>  (333) 
-32.8315

>  <Gold.PLP.ligand.clash>  (333) 
0.0000

>  <Gold.PLP.ligand.torsion>  (333) 
0.4489

>  <Gold.PLP.part.buried>  (333) 
-6.8823

>  <Gold.PLP.part.hbond>  (333) 
-9.0322

>  <Gold.PLP.part.metal>  (333) 
0.0000

>  <Gold.PLP.part.nonpolar>  (333) 
-17.9112

>  <Gold.PLP.part.repulsive>  (333) 
0.2570

>  <Gold.Protein.RotatedAtoms>  (333) 


>  <Gold.Protein.RotatedTorsions>  (333) 


>  <Gold.Protein.RotatedWaterAtoms>  (333) 


>  <Gold.Version>  (333) 
5.3.0

>  <PLP.Chemscore.CHOScore>  (333) 


>  <PLP.Chemscore.Hbond>  (333) 


>  <PLP.Chemscore.Internal.Correction>  (333) 


>  <PLP.Chemscore.Metal>  (333) 


>  <PLP.Fitness>  (333) 


>  <PLP.PLP>  (333) 


>  <PLP.ligand.clash>  (333) 


>  <PLP.ligand.torsion>  (333) 


>  <PLP.part.buried>  (333) 


>  <PLP.part.hbond>  (333) 


>  <PLP.part.metal>  (333) 


>  <PLP.part.nonpolar>  (333) 


>  <PLP.part.repulsive>  (333) 


>  <Version>  (333) 


$$$$
333|Compound_184|Compounds_3D_F|sdf|47|dock7|1
     RDKit          3D

 13 12  0  0  0  0  0  0  0  0999 V2000
  -11.4180  -17.6008   12.2543 O   0  0  0  0  0  0  0  0  0  0  0  0
  -10.3160  -18.1938   11.7621 C   0  0  0  0  0  0  0  0  0  0  0  0
  -10.1201  -19.3937   11.8988 O   0  0  0  0  0  0  0  0  0  0  0  0
   -9.3631  -17.2488   11.0567 C   0  0  0  0  0  0  0  0  0  0  0  0
   -9.9693  -16.7873    9.8402 O   0  0  0  0  0  0  0  0  0  0  0  0
   -9.0464  -16.0483   11.9458 C   0  0  0  0  0  0  0  0  0  0  0  0
   -7.6259  -15.9518   12.2356 N   0  0  0  0  0  0  0  0  0  0  0  0
   -6.8958  -14.7856   12.1357 C   0  0  0  0  0  0  0  0  0  0  0  0
   -7.3808  -13.7007   11.8287 O   0  0  0  0  0  0  0  0  0  0  0  0
   -5.3904  -15.0003   12.3652 C   0  0  0  0  0  0  0  0  0  0  0  0
   -4.6540  -13.7384   12.1096 N   0  0  0  0  0  0  0  0  0  0  0  0
   -4.8658  -16.1802   11.5235 C   0  0  0  0  0  0  0  0  0  0  0  0
   -3.4139  -16.1133   11.3009 N   0  0  0  0  0  0  0  0  0  0  0  0
  1  2  1  0
  2  3  2  0
  2  4  1  0
  4  5  1  0
  4  6  1  0
  6  7  1  0
  7  8  1  0
  8  9  2  0
  8 10  1  0
 10 11  1  0
 10 12  1  0
 12 13  1  0
M  END
>  <Gold.Gold.Protein.RotatedWaterAtoms>  (334) 


>  <Gold.Id.Protein>  (334) 


>  <Gold.PLP.Chemscore.CHOScore>  (334) 
0.0000

>  <Gold.PLP.Chemscore.Hbond>  (334) 
5.2254

>  <Gold.PLP.Chemscore.Internal.Correction>  (334) 
0.0689

>  <Gold.PLP.Chemscore.Metal>  (334) 
0.0000

>  <Gold.PLP.Fitness>  (334) 
42.3641

>  <Gold.PLP.PLP>  (334) 
-29.2551

>  <Gold.PLP.ligand.clash>  (334) 
0.0000

>  <Gold.PLP.ligand.torsion>  (334) 
1.3181

>  <Gold.PLP.part.buried>  (334) 
-4.7557

>  <Gold.PLP.part.hbond>  (334) 
-7.6888

>  <Gold.PLP.part.metal>  (334) 
0.0000

>  <Gold.PLP.part.nonpolar>  (334) 
-16.2943

>  <Gold.PLP.part.repulsive>  (334) 
0.1897

>  <Gold.Protein.RotatedAtoms>  (334) 


>  <Gold.Protein.RotatedTorsions>  (334) 


>  <Gold.Protein.RotatedWaterAtoms>  (334) 


>  <Gold.Version>  (334) 
5.3.0

>  <PLP.Chemscore.CHOScore>  (334) 


>  <PLP.Chemscore.Hbond>  (334) 


>  <PLP.Chemscore.Internal.Correction>  (334) 


>  <PLP.Chemscore.Metal>  (334) 


>  <PLP.Fitness>  (334) 


>  <PLP.PLP>  (334) 


>  <PLP.ligand.clash>  (334) 


>  <PLP.ligand.torsion>  (334) 


>  <PLP.part.buried>  (334) 


>  <PLP.part.hbond>  (334) 


>  <PLP.part.metal>  (334) 


>  <PLP.part.nonpolar>  (334) 


>  <PLP.part.repulsive>  (334) 


>  <Version>  (334) 


$$$$
334|Compound_184|Compounds_3D_F|sdf|47|dock8|1
     RDKit          3D

 13 12  0  0  0  0  0  0  0  0999 V2000
   -9.1806  -19.0546   11.2795 O   0  0  0  0  0  0  0  0  0  0  0  0
   -9.7322  -17.8561   11.0195 C   0  0  0  0  0  0  0  0  0  0  0  0
  -10.8721  -17.5864   11.3730 O   0  0  0  0  0  0  0  0  0  0  0  0
   -8.8303  -16.9090   10.2526 C   0  0  0  0  0  0  0  0  0  0  0  0
   -9.5669  -15.7243    9.9150 O   0  0  0  0  0  0  0  0  0  0  0  0
   -7.6196  -16.5223   11.0992 C   0  0  0  0  0  0  0  0  0  0  0  0
   -7.6125  -15.1039   11.4139 N   0  0  0  0  0  0  0  0  0  0  0  0
   -6.6991  -14.5054   12.2568 C   0  0  0  0  0  0  0  0  0  0  0  0
   -5.7743  -15.1045   12.7973 O   0  0  0  0  0  0  0  0  0  0  0  0
   -7.0098  -13.0224   12.5200 C   0  0  0  0  0  0  0  0  0  0  0  0
   -8.1415  -12.5830   11.6678 N   0  0  0  0  0  0  0  0  0  0  0  0
   -5.7503  -12.1529   12.3370 C   0  0  0  0  0  0  0  0  0  0  0  0
   -4.7355  -12.4046   13.3708 N   0  0  0  0  0  0  0  0  0  0  0  0
  1  2  1  0
  2  3  2  0
  2  4  1  0
  4  5  1  0
  4  6  1  0
  6  7  1  0
  7  8  1  0
  8  9  2  0
  8 10  1  0
 10 11  1  0
 10 12  1  0
 12 13  1  0
M  END
>  <Gold.Gold.Protein.RotatedWaterAtoms>  (335) 


>  <Gold.Id.Protein>  (335) 


>  <Gold.PLP.Chemscore.CHOScore>  (335) 
0.0000

>  <Gold.PLP.Chemscore.Hbond>  (335) 
3.0000

>  <Gold.PLP.Chemscore.Internal.Correction>  (335) 
0.0689

>  <Gold.PLP.Chemscore.Metal>  (335) 
0.0000

>  <Gold.PLP.Fitness>  (335) 
35.6681

>  <Gold.PLP.PLP>  (335) 
-28.5738

>  <Gold.PLP.ligand.clash>  (335) 
0.0000

>  <Gold.PLP.ligand.torsion>  (335) 
0.9873

>  <Gold.PLP.part.buried>  (335) 
-8.4964

>  <Gold.PLP.part.hbond>  (335) 
-5.2311

>  <Gold.PLP.part.metal>  (335) 
0.0000

>  <Gold.PLP.part.nonpolar>  (335) 
-15.5017

>  <Gold.PLP.part.repulsive>  (335) 
0.2192

>  <Gold.Protein.RotatedAtoms>  (335) 


>  <Gold.Protein.RotatedTorsions>  (335) 


>  <Gold.Protein.RotatedWaterAtoms>  (335) 


>  <Gold.Version>  (335) 
5.3.0

>  <PLP.Chemscore.CHOScore>  (335) 


>  <PLP.Chemscore.Hbond>  (335) 


>  <PLP.Chemscore.Internal.Correction>  (335) 


>  <PLP.Chemscore.Metal>  (335) 


>  <PLP.Fitness>  (335) 


>  <PLP.PLP>  (335) 


>  <PLP.ligand.clash>  (335) 


>  <PLP.ligand.torsion>  (335) 


>  <PLP.part.buried>  (335) 


>  <PLP.part.hbond>  (335) 


>  <PLP.part.metal>  (335) 


>  <PLP.part.nonpolar>  (335) 


>  <PLP.part.repulsive>  (335) 


>  <Version>  (335) 


$$$$
335|Compound_184|Compounds_3D_F|sdf|47|dock9|1
     RDKit          3D

 13 12  0  0  0  0  0  0  0  0999 V2000
  -11.5055  -20.0360   13.4017 O   0  0  0  0  0  0  0  0  0  0  0  0
  -10.9770  -19.9860   12.1662 C   0  0  0  0  0  0  0  0  0  0  0  0
  -10.4187  -20.9549   11.6696 O   0  0  0  0  0  0  0  0  0  0  0  0
  -11.1250  -18.6423   11.4798 C   0  0  0  0  0  0  0  0  0  0  0  0
  -11.6992  -17.7023   12.4000 O   0  0  0  0  0  0  0  0  0  0  0  0
   -9.7637  -18.1255   11.0194 C   0  0  0  0  0  0  0  0  0  0  0  0
   -9.6351  -16.6923   11.2199 N   0  0  0  0  0  0  0  0  0  0  0  0
   -8.4666  -16.0694   11.6069 C   0  0  0  0  0  0  0  0  0  0  0  0
   -7.4049  -16.6591   11.7839 O   0  0  0  0  0  0  0  0  0  0  0  0
   -8.6509  -14.5670   11.8786 C   0  0  0  0  0  0  0  0  0  0  0  0
   -9.2699  -13.9115   10.7009 N   0  0  0  0  0  0  0  0  0  0  0  0
   -7.3188  -13.9133   12.2958 C   0  0  0  0  0  0  0  0  0  0  0  0
   -6.3413  -13.8735   11.1980 N   0  0  0  0  0  0  0  0  0  0  0  0
  1  2  1  0
  2  3  2  0
  2  4  1  0
  4  5  1  0
  4  6  1  0
  6  7  1  0
  7  8  1  0
  8  9  2  0
  8 10  1  0
 10 11  1  0
 10 12  1  0
 12 13  1  0
M  END
>  <Gold.Gold.Protein.RotatedWaterAtoms>  (336) 


>  <Gold.Id.Protein>  (336) 


>  <Gold.PLP.Chemscore.CHOScore>  (336) 
0.0000

>  <Gold.PLP.Chemscore.Hbond>  (336) 
3.0000

>  <Gold.PLP.Chemscore.Internal.Correction>  (336) 
0.0689

>  <Gold.PLP.Chemscore.Metal>  (336) 
0.0000

>  <Gold.PLP.Fitness>  (336) 
35.5528

>  <Gold.PLP.PLP>  (336) 
-28.2341

>  <Gold.PLP.ligand.clash>  (336) 
0.0000

>  <Gold.PLP.ligand.torsion>  (336) 
0.8751

>  <Gold.PLP.part.buried>  (336) 
-6.1212

>  <Gold.PLP.part.hbond>  (336) 
-7.0000

>  <Gold.PLP.part.metal>  (336) 
0.0000

>  <Gold.PLP.part.nonpolar>  (336) 
-15.1915

>  <Gold.PLP.part.repulsive>  (336) 
0.0907

>  <Gold.Protein.RotatedAtoms>  (336) 


>  <Gold.Protein.RotatedTorsions>  (336) 


>  <Gold.Protein.RotatedWaterAtoms>  (336) 


>  <Gold.Version>  (336) 
5.3.0

>  <PLP.Chemscore.CHOScore>  (336) 


>  <PLP.Chemscore.Hbond>  (336) 


>  <PLP.Chemscore.Internal.Correction>  (336) 


>  <PLP.Chemscore.Metal>  (336) 


>  <PLP.Fitness>  (336) 


>  <PLP.PLP>  (336) 


>  <PLP.ligand.clash>  (336) 


>  <PLP.ligand.torsion>  (336) 


>  <PLP.part.buried>  (336) 


>  <PLP.part.hbond>  (336) 


>  <PLP.part.metal>  (336) 


>  <PLP.part.nonpolar>  (336) 


>  <PLP.part.repulsive>  (336) 


>  <Version>  (336) 


$$$$
336|Compound_185|Compounds_3D_F|sdf|48|dock1|1
     RDKit          3D

  8  7  0  0  0  0  0  0  0  0999 V2000
   -4.3760  -14.9280   11.8628 N   0  0  0  0  0  0  0  0  0  0  0  0
   -5.7587  -14.4586   11.7378 C   0  0  0  0  0  0  0  0  0  0  0  0
   -6.0749  -13.4004   12.8103 C   0  0  0  0  0  0  0  0  0  0  0  0
   -4.8780  -12.5735   13.0998 N   0  0  0  0  0  0  0  0  0  0  0  0
   -7.2161  -12.5019   12.3145 C   0  0  0  0  0  0  0  0  0  0  0  0
   -8.3620  -12.9212   12.1570 O   0  0  0  0  0  0  0  0  0  0  0  0
   -6.8373  -11.1955   12.0724 N   0  0  0  0  0  0  0  0  0  0  0  0
   -7.7876  -10.2169   11.6088 C   0  0  0  0  0  0  0  0  0  0  0  0
  1  2  1  0
  2  3  1  0
  3  4  1  0
  3  5  1  0
  5  6  2  0
  5  7  1  0
  7  8  1  0
M  END
>  <Gold.Gold.Protein.RotatedWaterAtoms>  (337) 


>  <Gold.Id.Protein>  (337) 


>  <Gold.PLP.Chemscore.CHOScore>  (337) 
0.0000

>  <Gold.PLP.Chemscore.Hbond>  (337) 
3.6621

>  <Gold.PLP.Chemscore.Internal.Correction>  (337) 
0.0027

>  <Gold.PLP.Chemscore.Metal>  (337) 
0.0000

>  <Gold.PLP.Fitness>  (337) 
37.9609

>  <Gold.PLP.PLP>  (337) 
-27.7876

>  <Gold.PLP.ligand.clash>  (337) 
0.0000

>  <Gold.PLP.ligand.torsion>  (337) 
0.4078

>  <Gold.PLP.part.buried>  (337) 
-5.9981

>  <Gold.PLP.part.hbond>  (337) 
-4.6454

>  <Gold.PLP.part.metal>  (337) 
0.0000

>  <Gold.PLP.part.nonpolar>  (337) 
-18.3265

>  <Gold.PLP.part.repulsive>  (337) 
0.2687

>  <Gold.Protein.RotatedAtoms>  (337) 


>  <Gold.Protein.RotatedTorsions>  (337) 


>  <Gold.Protein.RotatedWaterAtoms>  (337) 


>  <Gold.Version>  (337) 
5.3.0

>  <PLP.Chemscore.CHOScore>  (337) 


>  <PLP.Chemscore.Hbond>  (337) 


>  <PLP.Chemscore.Internal.Correction>  (337) 


>  <PLP.Chemscore.Metal>  (337) 


>  <PLP.Fitness>  (337) 


>  <PLP.PLP>  (337) 


>  <PLP.ligand.clash>  (337) 


>  <PLP.ligand.torsion>  (337) 


>  <PLP.part.buried>  (337) 


>  <PLP.part.hbond>  (337) 


>  <PLP.part.metal>  (337) 


>  <PLP.part.nonpolar>  (337) 


>  <PLP.part.repulsive>  (337) 


>  <Version>  (337) 


$$$$
337|Compound_185|Compounds_3D_F|sdf|48|dock2|1
     RDKit          3D

  8  7  0  0  0  0  0  0  0  0999 V2000
   -6.5519  -10.4076   11.8861 N   0  0  0  0  0  0  0  0  0  0  0  0
   -6.7948  -11.8168   12.2067 C   0  0  0  0  0  0  0  0  0  0  0  0
   -5.4765  -12.6121   12.2042 C   0  0  0  0  0  0  0  0  0  0  0  0
   -4.7397  -12.4096   13.4754 N   0  0  0  0  0  0  0  0  0  0  0  0
   -5.7853  -14.1039   12.0178 C   0  0  0  0  0  0  0  0  0  0  0  0
   -6.9270  -14.5199   11.8253 O   0  0  0  0  0  0  0  0  0  0  0  0
   -4.6720  -14.9196   12.0804 N   0  0  0  0  0  0  0  0  0  0  0  0
   -4.7829  -16.3468   11.9184 C   0  0  0  0  0  0  0  0  0  0  0  0
  1  2  1  0
  2  3  1  0
  3  4  1  0
  3  5  1  0
  5  6  2  0
  5  7  1  0
  7  8  1  0
M  END
>  <Gold.Gold.Protein.RotatedWaterAtoms>  (338) 


>  <Gold.Id.Protein>  (338) 


>  <Gold.PLP.Chemscore.CHOScore>  (338) 
0.0000

>  <Gold.PLP.Chemscore.Hbond>  (338) 
3.6800

>  <Gold.PLP.Chemscore.Internal.Correction>  (338) 
0.0027

>  <Gold.PLP.Chemscore.Metal>  (338) 
0.0000

>  <Gold.PLP.Fitness>  (338) 
36.3304

>  <Gold.PLP.PLP>  (338) 
-25.7635

>  <Gold.PLP.ligand.clash>  (338) 
0.0000

>  <Gold.PLP.ligand.torsion>  (338) 
0.2379

>  <Gold.PLP.part.buried>  (338) 
-6.0180

>  <Gold.PLP.part.hbond>  (338) 
-5.9433

>  <Gold.PLP.part.metal>  (338) 
0.0000

>  <Gold.PLP.part.nonpolar>  (338) 
-13.9752

>  <Gold.PLP.part.repulsive>  (338) 
0.1949

>  <Gold.Protein.RotatedAtoms>  (338) 


>  <Gold.Protein.RotatedTorsions>  (338) 


>  <Gold.Protein.RotatedWaterAtoms>  (338) 


>  <Gold.Version>  (338) 
5.3.0

>  <PLP.Chemscore.CHOScore>  (338) 


>  <PLP.Chemscore.Hbond>  (338) 


>  <PLP.Chemscore.Internal.Correction>  (338) 


>  <PLP.Chemscore.Metal>  (338) 


>  <PLP.Fitness>  (338) 


>  <PLP.PLP>  (338) 


>  <PLP.ligand.clash>  (338) 


>  <PLP.ligand.torsion>  (338) 


>  <PLP.part.buried>  (338) 


>  <PLP.part.hbond>  (338) 


>  <PLP.part.metal>  (338) 


>  <PLP.part.nonpolar>  (338) 


>  <PLP.part.repulsive>  (338) 


>  <Version>  (338) 


$$$$
338|Compound_185|Compounds_3D_F|sdf|48|dock3|1
     RDKit          3D

  8  7  0  0  0  0  0  0  0  0999 V2000
   -6.1973  -10.2238   12.5272 N   0  0  0  0  0  0  0  0  0  0  0  0
   -6.5886  -11.6354   12.4830 C   0  0  0  0  0  0  0  0  0  0  0  0
   -5.3485  -12.5428   12.3881 C   0  0  0  0  0  0  0  0  0  0  0  0
   -4.5022  -12.4021   13.5981 N   0  0  0  0  0  0  0  0  0  0  0  0
   -5.7989  -14.0024   12.2394 C   0  0  0  0  0  0  0  0  0  0  0  0
   -6.9849  -14.3194   12.1576 O   0  0  0  0  0  0  0  0  0  0  0  0
   -4.7580  -14.9100   12.2009 N   0  0  0  0  0  0  0  0  0  0  0  0
   -5.0044  -16.3221   12.0574 C   0  0  0  0  0  0  0  0  0  0  0  0
  1  2  1  0
  2  3  1  0
  3  4  1  0
  3  5  1  0
  5  6  2  0
  5  7  1  0
  7  8  1  0
M  END
>  <Gold.Gold.Protein.RotatedWaterAtoms>  (339) 


>  <Gold.Id.Protein>  (339) 


>  <Gold.PLP.Chemscore.CHOScore>  (339) 
0.0000

>  <Gold.PLP.Chemscore.Hbond>  (339) 
3.9833

>  <Gold.PLP.Chemscore.Internal.Correction>  (339) 
0.0027

>  <Gold.PLP.Chemscore.Metal>  (339) 
0.0000

>  <Gold.PLP.Fitness>  (339) 
36.6377

>  <Gold.PLP.PLP>  (339) 
-24.7480

>  <Gold.PLP.ligand.clash>  (339) 
0.0000

>  <Gold.PLP.ligand.torsion>  (339) 
0.0314

>  <Gold.PLP.part.buried>  (339) 
-5.2843

>  <Gold.PLP.part.hbond>  (339) 
-5.9289

>  <Gold.PLP.part.metal>  (339) 
0.0000

>  <Gold.PLP.part.nonpolar>  (339) 
-14.9141

>  <Gold.PLP.part.repulsive>  (339) 
0.2077

>  <Gold.Protein.RotatedAtoms>  (339) 


>  <Gold.Protein.RotatedTorsions>  (339) 


>  <Gold.Protein.RotatedWaterAtoms>  (339) 


>  <Gold.Version>  (339) 
5.3.0

>  <PLP.Chemscore.CHOScore>  (339) 


>  <PLP.Chemscore.Hbond>  (339) 


>  <PLP.Chemscore.Internal.Correction>  (339) 


>  <PLP.Chemscore.Metal>  (339) 


>  <PLP.Fitness>  (339) 


>  <PLP.PLP>  (339) 


>  <PLP.ligand.clash>  (339) 


>  <PLP.ligand.torsion>  (339) 


>  <PLP.part.buried>  (339) 


>  <PLP.part.hbond>  (339) 


>  <PLP.part.metal>  (339) 


>  <PLP.part.nonpolar>  (339) 


>  <PLP.part.repulsive>  (339) 


>  <Version>  (339) 


$$$$
339|Compound_185|Compounds_3D_F|sdf|48|dock4|1
     RDKit          3D

  8  7  0  0  0  0  0  0  0  0999 V2000
   -4.3497  -14.8320   11.8967 N   0  0  0  0  0  0  0  0  0  0  0  0
   -5.7040  -14.2852   12.0177 C   0  0  0  0  0  0  0  0  0  0  0  0
   -5.6886  -12.9563   12.7949 C   0  0  0  0  0  0  0  0  0  0  0  0
   -4.4298  -12.2145   12.5399 N   0  0  0  0  0  0  0  0  0  0  0  0
   -6.8883  -12.1025   12.3624 C   0  0  0  0  0  0  0  0  0  0  0  0
   -8.0109  -12.5796   12.2015 O   0  0  0  0  0  0  0  0  0  0  0  0
   -6.5896  -10.7660   12.1804 N   0  0  0  0  0  0  0  0  0  0  0  0
   -7.6028   -9.8228   11.7812 C   0  0  0  0  0  0  0  0  0  0  0  0
  1  2  1  0
  2  3  1  0
  3  4  1  0
  3  5  1  0
  5  6  2  0
  5  7  1  0
  7  8  1  0
M  END
>  <Gold.Gold.Protein.RotatedWaterAtoms>  (340) 


>  <Gold.Id.Protein>  (340) 


>  <Gold.PLP.Chemscore.CHOScore>  (340) 
0.0000

>  <Gold.PLP.Chemscore.Hbond>  (340) 
3.9280

>  <Gold.PLP.Chemscore.Internal.Correction>  (340) 
0.0027

>  <Gold.PLP.Chemscore.Metal>  (340) 
0.0000

>  <Gold.PLP.Fitness>  (340) 
37.5197

>  <Gold.PLP.PLP>  (340) 
-27.2499

>  <Gold.PLP.ligand.clash>  (340) 
0.0000

>  <Gold.PLP.ligand.torsion>  (340) 
0.7584

>  <Gold.PLP.part.buried>  (340) 
-5.2968

>  <Gold.PLP.part.hbond>  (340) 
-4.0000

>  <Gold.PLP.part.metal>  (340) 
0.0000

>  <Gold.PLP.part.nonpolar>  (340) 
-19.1373

>  <Gold.PLP.part.repulsive>  (340) 
0.2830

>  <Gold.Protein.RotatedAtoms>  (340) 


>  <Gold.Protein.RotatedTorsions>  (340) 


>  <Gold.Protein.RotatedWaterAtoms>  (340) 


>  <Gold.Version>  (340) 
5.3.0

>  <PLP.Chemscore.CHOScore>  (340) 


>  <PLP.Chemscore.Hbond>  (340) 


>  <PLP.Chemscore.Internal.Correction>  (340) 


>  <PLP.Chemscore.Metal>  (340) 


>  <PLP.Fitness>  (340) 


>  <PLP.PLP>  (340) 


>  <PLP.ligand.clash>  (340) 


>  <PLP.ligand.torsion>  (340) 


>  <PLP.part.buried>  (340) 


>  <PLP.part.hbond>  (340) 


>  <PLP.part.metal>  (340) 


>  <PLP.part.nonpolar>  (340) 


>  <PLP.part.repulsive>  (340) 


>  <Version>  (340) 


$$$$
340|Compound_185|Compounds_3D_F|sdf|48|dock5|1
     RDKit          3D

  8  7  0  0  0  0  0  0  0  0999 V2000
   -6.2646  -10.1227   12.5028 N   0  0  0  0  0  0  0  0  0  0  0  0
   -6.6535  -11.5317   12.3961 C   0  0  0  0  0  0  0  0  0  0  0  0
   -5.4107  -12.4396   12.3600 C   0  0  0  0  0  0  0  0  0  0  0  0
   -4.5923  -12.2569   13.5835 N   0  0  0  0  0  0  0  0  0  0  0  0
   -5.8563  -13.9041   12.2503 C   0  0  0  0  0  0  0  0  0  0  0  0
   -7.0421  -14.2291   12.2072 O   0  0  0  0  0  0  0  0  0  0  0  0
   -4.8113  -14.8065   12.1994 N   0  0  0  0  0  0  0  0  0  0  0  0
   -5.0531  -16.2224   12.0885 C   0  0  0  0  0  0  0  0  0  0  0  0
  1  2  1  0
  2  3  1  0
  3  4  1  0
  3  5  1  0
  5  6  2  0
  5  7  1  0
  7  8  1  0
M  END
>  <Gold.Gold.Protein.RotatedWaterAtoms>  (341) 


>  <Gold.Id.Protein>  (341) 


>  <Gold.PLP.Chemscore.CHOScore>  (341) 
0.0000

>  <Gold.PLP.Chemscore.Hbond>  (341) 
3.8800

>  <Gold.PLP.Chemscore.Internal.Correction>  (341) 
0.0026

>  <Gold.PLP.Chemscore.Metal>  (341) 
0.0000

>  <Gold.PLP.Fitness>  (341) 
36.6610

>  <Gold.PLP.PLP>  (341) 
-25.0217

>  <Gold.PLP.ligand.clash>  (341) 
0.0000

>  <Gold.PLP.ligand.torsion>  (341) 
0.0017

>  <Gold.PLP.part.buried>  (341) 
-4.9147

>  <Gold.PLP.part.hbond>  (341) 
-5.9381

>  <Gold.PLP.part.metal>  (341) 
0.0000

>  <Gold.PLP.part.nonpolar>  (341) 
-14.9185

>  <Gold.PLP.part.repulsive>  (341) 
0.2093

>  <Gold.Protein.RotatedAtoms>  (341) 


>  <Gold.Protein.RotatedTorsions>  (341) 


>  <Gold.Protein.RotatedWaterAtoms>  (341) 


>  <Gold.Version>  (341) 
5.3.0

>  <PLP.Chemscore.CHOScore>  (341) 


>  <PLP.Chemscore.Hbond>  (341) 


>  <PLP.Chemscore.Internal.Correction>  (341) 


>  <PLP.Chemscore.Metal>  (341) 


>  <PLP.Fitness>  (341) 


>  <PLP.PLP>  (341) 


>  <PLP.ligand.clash>  (341) 


>  <PLP.ligand.torsion>  (341) 


>  <PLP.part.buried>  (341) 


>  <PLP.part.hbond>  (341) 


>  <PLP.part.metal>  (341) 


>  <PLP.part.nonpolar>  (341) 


>  <PLP.part.repulsive>  (341) 


>  <Version>  (341) 


$$$$
341|Compound_185|Compounds_3D_F|sdf|48|dock6|1
     RDKit          3D

  8  7  0  0  0  0  0  0  0  0999 V2000
   -6.5334  -10.4416   11.9067 N   0  0  0  0  0  0  0  0  0  0  0  0
   -6.7787  -11.8768   12.0732 C   0  0  0  0  0  0  0  0  0  0  0  0
   -5.4508  -12.6499   12.1689 C   0  0  0  0  0  0  0  0  0  0  0  0
   -4.6588  -12.1891   13.3353 N   0  0  0  0  0  0  0  0  0  0  0  0
   -5.7465  -14.1497   12.3052 C   0  0  0  0  0  0  0  0  0  0  0  0
   -6.8832  -14.5812   12.4937 O   0  0  0  0  0  0  0  0  0  0  0  0
   -4.6296  -14.9547   12.1909 N   0  0  0  0  0  0  0  0  0  0  0  0
   -4.7305  -16.3886   12.2870 C   0  0  0  0  0  0  0  0  0  0  0  0
  1  2  1  0
  2  3  1  0
  3  4  1  0
  3  5  1  0
  5  6  2  0
  5  7  1  0
  7  8  1  0
M  END
>  <Gold.Gold.Protein.RotatedWaterAtoms>  (342) 


>  <Gold.Id.Protein>  (342) 


>  <Gold.PLP.Chemscore.CHOScore>  (342) 
0.0000

>  <Gold.PLP.Chemscore.Hbond>  (342) 
3.8613

>  <Gold.PLP.Chemscore.Internal.Correction>  (342) 
0.0026

>  <Gold.PLP.Chemscore.Metal>  (342) 
0.0000

>  <Gold.PLP.Fitness>  (342) 
37.6623

>  <Gold.PLP.PLP>  (342) 
-26.3654

>  <Gold.PLP.ligand.clash>  (342) 
0.0000

>  <Gold.PLP.ligand.torsion>  (342) 
0.1447

>  <Gold.PLP.part.buried>  (342) 
-6.0826

>  <Gold.PLP.part.hbond>  (342) 
-5.8786

>  <Gold.PLP.part.metal>  (342) 
0.0000

>  <Gold.PLP.part.nonpolar>  (342) 
-14.7934

>  <Gold.PLP.part.repulsive>  (342) 
0.2361

>  <Gold.Protein.RotatedAtoms>  (342) 


>  <Gold.Protein.RotatedTorsions>  (342) 


>  <Gold.Protein.RotatedWaterAtoms>  (342) 


>  <Gold.Version>  (342) 
5.3.0

>  <PLP.Chemscore.CHOScore>  (342) 


>  <PLP.Chemscore.Hbond>  (342) 


>  <PLP.Chemscore.Internal.Correction>  (342) 


>  <PLP.Chemscore.Metal>  (342) 


>  <PLP.Fitness>  (342) 


>  <PLP.PLP>  (342) 


>  <PLP.ligand.clash>  (342) 


>  <PLP.ligand.torsion>  (342) 


>  <PLP.part.buried>  (342) 


>  <PLP.part.hbond>  (342) 


>  <PLP.part.metal>  (342) 


>  <PLP.part.nonpolar>  (342) 


>  <PLP.part.repulsive>  (342) 


>  <Version>  (342) 


$$$$
342|Compound_185|Compounds_3D_F|sdf|48|dock7|1
     RDKit          3D

  8  7  0  0  0  0  0  0  0  0999 V2000
   -4.3060  -14.8929   11.9198 N   0  0  0  0  0  0  0  0  0  0  0  0
   -5.6457  -14.3050   11.8348 C   0  0  0  0  0  0  0  0  0  0  0  0
   -5.7629  -13.0784   12.7578 C   0  0  0  0  0  0  0  0  0  0  0  0
   -4.5680  -12.2093   12.6290 N   0  0  0  0  0  0  0  0  0  0  0  0
   -7.0223  -12.2836   12.3867 C   0  0  0  0  0  0  0  0  0  0  0  0
   -8.1503  -12.7704   12.4534 O   0  0  0  0  0  0  0  0  0  0  0  0
   -6.7691  -10.9869   11.9829 N   0  0  0  0  0  0  0  0  0  0  0  0
   -7.8403  -10.1004   11.6058 C   0  0  0  0  0  0  0  0  0  0  0  0
  1  2  1  0
  2  3  1  0
  3  4  1  0
  3  5  1  0
  5  6  2  0
  5  7  1  0
  7  8  1  0
M  END
>  <Gold.Gold.Protein.RotatedWaterAtoms>  (343) 


>  <Gold.Id.Protein>  (343) 


>  <Gold.PLP.Chemscore.CHOScore>  (343) 
0.0000

>  <Gold.PLP.Chemscore.Hbond>  (343) 
3.4386

>  <Gold.PLP.Chemscore.Internal.Correction>  (343) 
0.0026

>  <Gold.PLP.Chemscore.Metal>  (343) 
0.0000

>  <Gold.PLP.Fitness>  (343) 
37.0247

>  <Gold.PLP.PLP>  (343) 
-26.9298

>  <Gold.PLP.ligand.clash>  (343) 
0.0000

>  <Gold.PLP.ligand.torsion>  (343) 
0.1117

>  <Gold.PLP.part.buried>  (343) 
-4.8813

>  <Gold.PLP.part.hbond>  (343) 
-4.2618

>  <Gold.PLP.part.metal>  (343) 
0.0000

>  <Gold.PLP.part.nonpolar>  (343) 
-19.0377

>  <Gold.PLP.part.repulsive>  (343) 
0.2823

>  <Gold.Protein.RotatedAtoms>  (343) 


>  <Gold.Protein.RotatedTorsions>  (343) 


>  <Gold.Protein.RotatedWaterAtoms>  (343) 


>  <Gold.Version>  (343) 
5.3.0

>  <PLP.Chemscore.CHOScore>  (343) 


>  <PLP.Chemscore.Hbond>  (343) 


>  <PLP.Chemscore.Internal.Correction>  (343) 


>  <PLP.Chemscore.Metal>  (343) 


>  <PLP.Fitness>  (343) 


>  <PLP.PLP>  (343) 


>  <PLP.ligand.clash>  (343) 


>  <PLP.ligand.torsion>  (343) 


>  <PLP.part.buried>  (343) 


>  <PLP.part.hbond>  (343) 


>  <PLP.part.metal>  (343) 


>  <PLP.part.nonpolar>  (343) 


>  <PLP.part.repulsive>  (343) 


>  <Version>  (343) 


$$$$
343|Compound_185|Compounds_3D_F|sdf|48|dock8|1
     RDKit          3D

  8  7  0  0  0  0  0  0  0  0999 V2000
   -6.6862  -10.4828   11.8983 N   0  0  0  0  0  0  0  0  0  0  0  0
   -6.8594  -11.8975   12.2393 C   0  0  0  0  0  0  0  0  0  0  0  0
   -5.5095  -12.6369   12.2026 C   0  0  0  0  0  0  0  0  0  0  0  0
   -4.6405  -12.1973   13.3213 N   0  0  0  0  0  0  0  0  0  0  0  0
   -5.7568  -14.1482   12.3034 C   0  0  0  0  0  0  0  0  0  0  0  0
   -6.8817  -14.6213   12.4598 O   0  0  0  0  0  0  0  0  0  0  0  0
   -4.6111  -14.9128   12.1967 N   0  0  0  0  0  0  0  0  0  0  0  0
   -4.6652  -16.3510   12.2628 C   0  0  0  0  0  0  0  0  0  0  0  0
  1  2  1  0
  2  3  1  0
  3  4  1  0
  3  5  1  0
  5  6  2  0
  5  7  1  0
  7  8  1  0
M  END
>  <Gold.Gold.Protein.RotatedWaterAtoms>  (344) 


>  <Gold.Id.Protein>  (344) 


>  <Gold.PLP.Chemscore.CHOScore>  (344) 
0.0000

>  <Gold.PLP.Chemscore.Hbond>  (344) 
3.0000

>  <Gold.PLP.Chemscore.Internal.Correction>  (344) 
0.0026

>  <Gold.PLP.Chemscore.Metal>  (344) 
0.0000

>  <Gold.PLP.Fitness>  (344) 
36.2269

>  <Gold.PLP.PLP>  (344) 
-27.3650

>  <Gold.PLP.ligand.clash>  (344) 
0.0000

>  <Gold.PLP.ligand.torsion>  (344) 
0.0704

>  <Gold.PLP.part.buried>  (344) 
-6.7874

>  <Gold.PLP.part.hbond>  (344) 
-5.8198

>  <Gold.PLP.part.metal>  (344) 
0.0000

>  <Gold.PLP.part.nonpolar>  (344) 
-15.0972

>  <Gold.PLP.part.repulsive>  (344) 
0.2360

>  <Gold.Protein.RotatedAtoms>  (344) 


>  <Gold.Protein.RotatedTorsions>  (344) 


>  <Gold.Protein.RotatedWaterAtoms>  (344) 


>  <Gold.Version>  (344) 
5.3.0

>  <PLP.Chemscore.CHOScore>  (344) 


>  <PLP.Chemscore.Hbond>  (344) 


>  <PLP.Chemscore.Internal.Correction>  (344) 


>  <PLP.Chemscore.Metal>  (344) 


>  <PLP.Fitness>  (344) 


>  <PLP.PLP>  (344) 


>  <PLP.ligand.clash>  (344) 


>  <PLP.ligand.torsion>  (344) 


>  <PLP.part.buried>  (344) 


>  <PLP.part.hbond>  (344) 


>  <PLP.part.metal>  (344) 


>  <PLP.part.nonpolar>  (344) 


>  <PLP.part.repulsive>  (344) 


>  <Version>  (344) 


$$$$
344|Compound_185|Compounds_3D_F|sdf|48|dock9|1
     RDKit          3D

  8  7  0  0  0  0  0  0  0  0999 V2000
   -6.3378  -10.4008   12.5345 N   0  0  0  0  0  0  0  0  0  0  0  0
   -6.6388  -11.8219   12.3402 C   0  0  0  0  0  0  0  0  0  0  0  0
   -5.3468  -12.6592   12.3462 C   0  0  0  0  0  0  0  0  0  0  0  0
   -4.6002  -12.4619   13.6125 N   0  0  0  0  0  0  0  0  0  0  0  0
   -5.7039  -14.1428   12.1826 C   0  0  0  0  0  0  0  0  0  0  0  0
   -6.8641  -14.5286   12.0455 O   0  0  0  0  0  0  0  0  0  0  0  0
   -4.6112  -14.9881   12.1981 N   0  0  0  0  0  0  0  0  0  0  0  0
   -4.7679  -16.4125   12.0493 C   0  0  0  0  0  0  0  0  0  0  0  0
  1  2  1  0
  2  3  1  0
  3  4  1  0
  3  5  1  0
  5  6  2  0
  5  7  1  0
  7  8  1  0
M  END
>  <Gold.Gold.Protein.RotatedWaterAtoms>  (345) 


>  <Gold.Id.Protein>  (345) 


>  <Gold.PLP.Chemscore.CHOScore>  (345) 
0.0000

>  <Gold.PLP.Chemscore.Hbond>  (345) 
3.1628

>  <Gold.PLP.Chemscore.Internal.Correction>  (345) 
0.0026

>  <Gold.PLP.Chemscore.Metal>  (345) 
0.0000

>  <Gold.PLP.Fitness>  (345) 
35.4069

>  <Gold.PLP.PLP>  (345) 
-25.9371

>  <Gold.PLP.ligand.clash>  (345) 
0.0000

>  <Gold.PLP.ligand.torsion>  (345) 
0.0106

>  <Gold.PLP.part.buried>  (345) 
-6.3578

>  <Gold.PLP.part.hbond>  (345) 
-5.7341

>  <Gold.PLP.part.metal>  (345) 
0.0000

>  <Gold.PLP.part.nonpolar>  (345) 
-15.0045

>  <Gold.PLP.part.repulsive>  (345) 
0.2110

>  <Gold.Protein.RotatedAtoms>  (345) 


>  <Gold.Protein.RotatedTorsions>  (345) 


>  <Gold.Protein.RotatedWaterAtoms>  (345) 


>  <Gold.Version>  (345) 
5.3.0

>  <PLP.Chemscore.CHOScore>  (345) 


>  <PLP.Chemscore.Hbond>  (345) 


>  <PLP.Chemscore.Internal.Correction>  (345) 


>  <PLP.Chemscore.Metal>  (345) 


>  <PLP.Fitness>  (345) 


>  <PLP.PLP>  (345) 


>  <PLP.ligand.clash>  (345) 


>  <PLP.ligand.torsion>  (345) 


>  <PLP.part.buried>  (345) 


>  <PLP.part.hbond>  (345) 


>  <PLP.part.metal>  (345) 


>  <PLP.part.nonpolar>  (345) 


>  <PLP.part.repulsive>  (345) 


>  <Version>  (345) 


$$$$
345|Compound_186|Compounds_3D_F|sdf|49|dock1|1
     RDKit          3D

 11 10  0  0  0  0  0  0  0  0999 V2000
   -5.8741  -14.5961   10.5528 O   0  0  0  0  0  0  0  0  0  0  0  0
   -6.3391  -14.5545   11.8996 C   0  0  0  0  0  0  0  0  0  0  0  0
   -6.4069  -15.9671   12.4956 C   0  0  0  0  0  0  0  0  0  0  0  0
   -7.3387  -16.7916   11.7378 N   0  0  0  0  0  0  0  0  0  0  0  0
   -8.6224  -16.4120   11.4101 C   0  0  0  0  0  0  0  0  0  0  0  0
   -9.1163  -15.3271   11.7068 O   0  0  0  0  0  0  0  0  0  0  0  0
   -9.4054  -17.5192   10.6940 C   0  0  0  0  0  0  0  0  0  0  0  0
  -10.2788  -16.9346    9.6437 N   0  0  0  0  0  0  0  0  0  0  0  0
  -10.2248  -18.3587   11.6890 C   0  0  0  0  0  0  0  0  0  0  0  0
  -11.3410  -17.5838   12.2493 N   0  0  0  0  0  0  0  0  0  0  0  0
   -5.0345  -16.6357   12.5300 C   0  0  0  0  0  0  0  0  0  0  0  0
  1  2  1  0
  2  3  1  0
  3  4  1  0
  3 11  1  0
  4  5  1  0
  5  6  2  0
  5  7  1  0
  7  8  1  0
  7  9  1  0
  9 10  1  0
M  END
>  <Gold.Gold.Protein.RotatedWaterAtoms>  (346) 


>  <Gold.Id.Protein>  (346) 


>  <Gold.PLP.Chemscore.CHOScore>  (346) 
0.0000

>  <Gold.PLP.Chemscore.Hbond>  (346) 
4.0000

>  <Gold.PLP.Chemscore.Internal.Correction>  (346) 
0.0434

>  <Gold.PLP.Chemscore.Metal>  (346) 
0.0000

>  <Gold.PLP.Fitness>  (346) 
38.4121

>  <Gold.PLP.PLP>  (346) 
-27.8830

>  <Gold.PLP.ligand.clash>  (346) 
0.0000

>  <Gold.PLP.ligand.torsion>  (346) 
0.7571

>  <Gold.PLP.part.buried>  (346) 
-5.4368

>  <Gold.PLP.part.hbond>  (346) 
-6.0000

>  <Gold.PLP.part.metal>  (346) 
0.0000

>  <Gold.PLP.part.nonpolar>  (346) 
-16.3653

>  <Gold.PLP.part.repulsive>  (346) 
0.1629

>  <Gold.Protein.RotatedAtoms>  (346) 


>  <Gold.Protein.RotatedTorsions>  (346) 


>  <Gold.Protein.RotatedWaterAtoms>  (346) 


>  <Gold.Version>  (346) 
5.3.0

>  <PLP.Chemscore.CHOScore>  (346) 


>  <PLP.Chemscore.Hbond>  (346) 


>  <PLP.Chemscore.Internal.Correction>  (346) 


>  <PLP.Chemscore.Metal>  (346) 


>  <PLP.Fitness>  (346) 


>  <PLP.PLP>  (346) 


>  <PLP.ligand.clash>  (346) 


>  <PLP.ligand.torsion>  (346) 


>  <PLP.part.buried>  (346) 


>  <PLP.part.hbond>  (346) 


>  <PLP.part.metal>  (346) 


>  <PLP.part.nonpolar>  (346) 


>  <PLP.part.repulsive>  (346) 


>  <Version>  (346) 


$$$$
346|Compound_186|Compounds_3D_F|sdf|49|dock2|1
     RDKit          3D

 11 10  0  0  0  0  0  0  0  0999 V2000
  -10.0864  -14.3237   12.7241 O   0  0  0  0  0  0  0  0  0  0  0  0
   -9.3876  -13.3751   11.9218 C   0  0  0  0  0  0  0  0  0  0  0  0
   -7.9993  -13.0845   12.5080 C   0  0  0  0  0  0  0  0  0  0  0  0
   -7.1088  -14.2154   12.2839 N   0  0  0  0  0  0  0  0  0  0  0  0
   -5.7408  -14.1707   12.4449 C   0  0  0  0  0  0  0  0  0  0  0  0
   -5.1233  -13.1746   12.8128 O   0  0  0  0  0  0  0  0  0  0  0  0
   -5.0517  -15.4808   12.0446 C   0  0  0  0  0  0  0  0  0  0  0  0
   -4.9531  -15.5790   10.5653 N   0  0  0  0  0  0  0  0  0  0  0  0
   -5.7832  -16.7002   12.6313 C   0  0  0  0  0  0  0  0  0  0  0  0
   -7.1130  -16.8665   12.0279 N   0  0  0  0  0  0  0  0  0  0  0  0
   -7.3862  -11.8178   11.9154 C   0  0  0  0  0  0  0  0  0  0  0  0
  1  2  1  0
  2  3  1  0
  3  4  1  0
  3 11  1  0
  4  5  1  0
  5  6  2  0
  5  7  1  0
  7  8  1  0
  7  9  1  0
  9 10  1  0
M  END
>  <Gold.Gold.Protein.RotatedWaterAtoms>  (347) 


>  <Gold.Id.Protein>  (347) 


>  <Gold.PLP.Chemscore.CHOScore>  (347) 
0.0000

>  <Gold.PLP.Chemscore.Hbond>  (347) 
2.8857

>  <Gold.PLP.Chemscore.Internal.Correction>  (347) 
0.0434

>  <Gold.PLP.Chemscore.Metal>  (347) 
0.0000

>  <Gold.PLP.Fitness>  (347) 
39.3322

>  <Gold.PLP.PLP>  (347) 
-32.1739

>  <Gold.PLP.ligand.clash>  (347) 
0.0000

>  <Gold.PLP.ligand.torsion>  (347) 
0.7711

>  <Gold.PLP.part.buried>  (347) 
-7.4278

>  <Gold.PLP.part.hbond>  (347) 
-3.9827

>  <Gold.PLP.part.metal>  (347) 
0.0000

>  <Gold.PLP.part.nonpolar>  (347) 
-21.9577

>  <Gold.PLP.part.repulsive>  (347) 
0.6773

>  <Gold.Protein.RotatedAtoms>  (347) 


>  <Gold.Protein.RotatedTorsions>  (347) 


>  <Gold.Protein.RotatedWaterAtoms>  (347) 


>  <Gold.Version>  (347) 
5.3.0

>  <PLP.Chemscore.CHOScore>  (347) 


>  <PLP.Chemscore.Hbond>  (347) 


>  <PLP.Chemscore.Internal.Correction>  (347) 


>  <PLP.Chemscore.Metal>  (347) 


>  <PLP.Fitness>  (347) 


>  <PLP.PLP>  (347) 


>  <PLP.ligand.clash>  (347) 


>  <PLP.ligand.torsion>  (347) 


>  <PLP.part.buried>  (347) 


>  <PLP.part.hbond>  (347) 


>  <PLP.part.metal>  (347) 


>  <PLP.part.nonpolar>  (347) 


>  <PLP.part.repulsive>  (347) 


>  <Version>  (347) 


$$$$
347|Compound_186|Compounds_3D_F|sdf|49|dock3|1
     RDKit          3D

 11 10  0  0  0  0  0  0  0  0999 V2000
   -5.0007  -15.8671   10.6937 O   0  0  0  0  0  0  0  0  0  0  0  0
   -5.5784  -15.9392   11.9949 C   0  0  0  0  0  0  0  0  0  0  0  0
   -6.8249  -15.0486   12.0867 C   0  0  0  0  0  0  0  0  0  0  0  0
   -6.4458  -13.6425   12.0512 N   0  0  0  0  0  0  0  0  0  0  0  0
   -7.3386  -12.5952   12.1230 C   0  0  0  0  0  0  0  0  0  0  0  0
   -8.5534  -12.7333   12.2427 O   0  0  0  0  0  0  0  0  0  0  0  0
   -6.6646  -11.2270   11.9634 C   0  0  0  0  0  0  0  0  0  0  0  0
   -5.6614  -11.0193   13.0396 N   0  0  0  0  0  0  0  0  0  0  0  0
   -7.7012  -10.0906   11.9482 C   0  0  0  0  0  0  0  0  0  0  0  0
   -8.4866  -10.1007   10.7059 N   0  0  0  0  0  0  0  0  0  0  0  0
   -7.8187  -15.3450   10.9659 C   0  0  0  0  0  0  0  0  0  0  0  0
  1  2  1  0
  2  3  1  0
  3  4  1  0
  3 11  1  0
  4  5  1  0
  5  6  2  0
  5  7  1  0
  7  8  1  0
  7  9  1  0
  9 10  1  0
M  END
>  <Gold.Gold.Protein.RotatedWaterAtoms>  (348) 


>  <Gold.Id.Protein>  (348) 


>  <Gold.PLP.Chemscore.CHOScore>  (348) 
0.0000

>  <Gold.PLP.Chemscore.Hbond>  (348) 
3.1626

>  <Gold.PLP.Chemscore.Internal.Correction>  (348) 
0.0376

>  <Gold.PLP.Chemscore.Metal>  (348) 
0.0000

>  <Gold.PLP.Fitness>  (348) 
43.9428

>  <Gold.PLP.PLP>  (348) 
-34.6900

>  <Gold.PLP.ligand.clash>  (348) 
0.0000

>  <Gold.PLP.ligand.torsion>  (348) 
0.1363

>  <Gold.PLP.part.buried>  (348) 
-7.2028

>  <Gold.PLP.part.hbond>  (348) 
-7.6674

>  <Gold.PLP.part.metal>  (348) 
0.0000

>  <Gold.PLP.part.nonpolar>  (348) 
-20.4347

>  <Gold.PLP.part.repulsive>  (348) 
0.2070

>  <Gold.Protein.RotatedAtoms>  (348) 


>  <Gold.Protein.RotatedTorsions>  (348) 


>  <Gold.Protein.RotatedWaterAtoms>  (348) 


>  <Gold.Version>  (348) 
5.3.0

>  <PLP.Chemscore.CHOScore>  (348) 


>  <PLP.Chemscore.Hbond>  (348) 


>  <PLP.Chemscore.Internal.Correction>  (348) 


>  <PLP.Chemscore.Metal>  (348) 


>  <PLP.Fitness>  (348) 


>  <PLP.PLP>  (348) 


>  <PLP.ligand.clash>  (348) 


>  <PLP.ligand.torsion>  (348) 


>  <PLP.part.buried>  (348) 


>  <PLP.part.hbond>  (348) 


>  <PLP.part.metal>  (348) 


>  <PLP.part.nonpolar>  (348) 


>  <PLP.part.repulsive>  (348) 


>  <Version>  (348) 


$$$$
348|Compound_186|Compounds_3D_F|sdf|49|dock4|1
     RDKit          3D

 11 10  0  0  0  0  0  0  0  0999 V2000
   -4.2650  -16.2791    9.4799 O   0  0  0  0  0  0  0  0  0  0  0  0
   -5.0843  -16.7357   10.5533 C   0  0  0  0  0  0  0  0  0  0  0  0
   -4.4999  -16.3042   11.9053 C   0  0  0  0  0  0  0  0  0  0  0  0
   -4.5700  -14.8561   12.0476 N   0  0  0  0  0  0  0  0  0  0  0  0
   -5.7434  -14.1432   12.1664 C   0  0  0  0  0  0  0  0  0  0  0  0
   -6.8604  -14.6540   12.1829 O   0  0  0  0  0  0  0  0  0  0  0  0
   -5.5170  -12.6269   12.2030 C   0  0  0  0  0  0  0  0  0  0  0  0
   -4.7147  -12.2553   13.3971 N   0  0  0  0  0  0  0  0  0  0  0  0
   -6.8506  -11.8609   12.1736 C   0  0  0  0  0  0  0  0  0  0  0  0
   -6.6418  -10.4362   11.8789 N   0  0  0  0  0  0  0  0  0  0  0  0
   -5.2178  -16.9744   13.0745 C   0  0  0  0  0  0  0  0  0  0  0  0
  1  2  1  0
  2  3  1  0
  3  4  1  0
  3 11  1  0
  4  5  1  0
  5  6  2  0
  5  7  1  0
  7  8  1  0
  7  9  1  0
  9 10  1  0
M  END
>  <Gold.Gold.Protein.RotatedWaterAtoms>  (349) 


>  <Gold.Id.Protein>  (349) 


>  <Gold.PLP.Chemscore.CHOScore>  (349) 
0.0000

>  <Gold.PLP.Chemscore.Hbond>  (349) 
4.4186

>  <Gold.PLP.Chemscore.Internal.Correction>  (349) 
0.0376

>  <Gold.PLP.Chemscore.Metal>  (349) 
0.0000

>  <Gold.PLP.Fitness>  (349) 
45.3223

>  <Gold.PLP.PLP>  (349) 
-32.3820

>  <Gold.PLP.ligand.clash>  (349) 
0.0000

>  <Gold.PLP.ligand.torsion>  (349) 
0.1764

>  <Gold.PLP.part.buried>  (349) 
-7.5516

>  <Gold.PLP.part.hbond>  (349) 
-6.8547

>  <Gold.PLP.part.metal>  (349) 
0.0000

>  <Gold.PLP.part.nonpolar>  (349) 
-18.6625

>  <Gold.PLP.part.repulsive>  (349) 
0.2348

>  <Gold.Protein.RotatedAtoms>  (349) 


>  <Gold.Protein.RotatedTorsions>  (349) 


>  <Gold.Protein.RotatedWaterAtoms>  (349) 


>  <Gold.Version>  (349) 
5.3.0

>  <PLP.Chemscore.CHOScore>  (349) 


>  <PLP.Chemscore.Hbond>  (349) 


>  <PLP.Chemscore.Internal.Correction>  (349) 


>  <PLP.Chemscore.Metal>  (349) 


>  <PLP.Fitness>  (349) 


>  <PLP.PLP>  (349) 


>  <PLP.ligand.clash>  (349) 


>  <PLP.ligand.torsion>  (349) 


>  <PLP.part.buried>  (349) 


>  <PLP.part.hbond>  (349) 


>  <PLP.part.metal>  (349) 


>  <PLP.part.nonpolar>  (349) 


>  <PLP.part.repulsive>  (349) 


>  <Version>  (349) 


$$$$
349|Compound_186|Compounds_3D_F|sdf|49|dock5|1
     RDKit          3D

 11 10  0  0  0  0  0  0  0  0999 V2000
   -8.4497  -14.3036   12.4962 O   0  0  0  0  0  0  0  0  0  0  0  0
   -7.5814  -13.2924   11.9909 C   0  0  0  0  0  0  0  0  0  0  0  0
   -6.1496  -13.4990   12.5033 C   0  0  0  0  0  0  0  0  0  0  0  0
   -5.4637  -14.5004   11.6977 N   0  0  0  0  0  0  0  0  0  0  0  0
   -5.7790  -15.8420   11.6922 C   0  0  0  0  0  0  0  0  0  0  0  0
   -6.6867  -16.3384   12.3545 O   0  0  0  0  0  0  0  0  0  0  0  0
   -4.8269  -16.6732   10.8237 C   0  0  0  0  0  0  0  0  0  0  0  0
   -3.4253  -16.2205   11.0188 N   0  0  0  0  0  0  0  0  0  0  0  0
   -5.2255  -16.6115    9.3393 C   0  0  0  0  0  0  0  0  0  0  0  0
   -5.3172  -15.2223    8.8681 N   0  0  0  0  0  0  0  0  0  0  0  0
   -5.3516  -12.1972   12.5001 C   0  0  0  0  0  0  0  0  0  0  0  0
  1  2  1  0
  2  3  1  0
  3  4  1  0
  3 11  1  0
  4  5  1  0
  5  6  2  0
  5  7  1  0
  7  8  1  0
  7  9  1  0
  9 10  1  0
M  END
>  <Gold.Gold.Protein.RotatedWaterAtoms>  (350) 


>  <Gold.Id.Protein>  (350) 


>  <Gold.PLP.Chemscore.CHOScore>  (350) 
0.0000

>  <Gold.PLP.Chemscore.Hbond>  (350) 
3.0901

>  <Gold.PLP.Chemscore.Internal.Correction>  (350) 
0.0376

>  <Gold.PLP.Chemscore.Metal>  (350) 
0.0000

>  <Gold.PLP.Fitness>  (350) 
36.6347

>  <Gold.PLP.PLP>  (350) 
-29.1074

>  <Gold.PLP.ligand.clash>  (350) 
0.0000

>  <Gold.PLP.ligand.torsion>  (350) 
0.8902

>  <Gold.PLP.part.buried>  (350) 
-7.0381

>  <Gold.PLP.part.hbond>  (350) 
-5.5938

>  <Gold.PLP.part.metal>  (350) 
0.0000

>  <Gold.PLP.part.nonpolar>  (350) 
-16.8136

>  <Gold.PLP.part.repulsive>  (350) 
0.1291

>  <Gold.Protein.RotatedAtoms>  (350) 


>  <Gold.Protein.RotatedTorsions>  (350) 


>  <Gold.Protein.RotatedWaterAtoms>  (350) 


>  <Gold.Version>  (350) 
5.3.0

>  <PLP.Chemscore.CHOScore>  (350) 


>  <PLP.Chemscore.Hbond>  (350) 


>  <PLP.Chemscore.Internal.Correction>  (350) 


>  <PLP.Chemscore.Metal>  (350) 


>  <PLP.Fitness>  (350) 


>  <PLP.PLP>  (350) 


>  <PLP.ligand.clash>  (350) 


>  <PLP.ligand.torsion>  (350) 


>  <PLP.part.buried>  (350) 


>  <PLP.part.hbond>  (350) 


>  <PLP.part.metal>  (350) 


>  <PLP.part.nonpolar>  (350) 


>  <PLP.part.repulsive>  (350) 


>  <Version>  (350) 


$$$$
350|Compound_186|Compounds_3D_F|sdf|49|dock6|1
     RDKit          3D

 11 10  0  0  0  0  0  0  0  0999 V2000
   -4.8494  -16.0865   10.9763 O   0  0  0  0  0  0  0  0  0  0  0  0
   -5.7673  -16.3246   12.0406 C   0  0  0  0  0  0  0  0  0  0  0  0
   -6.9266  -15.3200   11.9941 C   0  0  0  0  0  0  0  0  0  0  0  0
   -6.4155  -13.9561   12.0233 N   0  0  0  0  0  0  0  0  0  0  0  0
   -7.2042  -12.8337   12.1557 C   0  0  0  0  0  0  0  0  0  0  0  0
   -8.4258  -12.8618   12.2815 O   0  0  0  0  0  0  0  0  0  0  0  0
   -6.4039  -11.5294   12.0560 C   0  0  0  0  0  0  0  0  0  0  0  0
   -5.3397  -11.4983   13.0924 N   0  0  0  0  0  0  0  0  0  0  0  0
   -7.3212  -10.2998   12.1695 C   0  0  0  0  0  0  0  0  0  0  0  0
   -8.2058  -10.1837   11.0016 N   0  0  0  0  0  0  0  0  0  0  0  0
   -7.8011  -15.5184   10.7582 C   0  0  0  0  0  0  0  0  0  0  0  0
  1  2  1  0
  2  3  1  0
  3  4  1  0
  3 11  1  0
  4  5  1  0
  5  6  2  0
  5  7  1  0
  7  8  1  0
  7  9  1  0
  9 10  1  0
M  END
>  <Gold.Gold.Protein.RotatedWaterAtoms>  (351) 


>  <Gold.Id.Protein>  (351) 


>  <Gold.PLP.Chemscore.CHOScore>  (351) 
0.0000

>  <Gold.PLP.Chemscore.Hbond>  (351) 
2.1464

>  <Gold.PLP.Chemscore.Internal.Correction>  (351) 
0.0376

>  <Gold.PLP.Chemscore.Metal>  (351) 
0.0000

>  <Gold.PLP.Fitness>  (351) 
38.1472

>  <Gold.PLP.PLP>  (351) 
-31.9150

>  <Gold.PLP.ligand.clash>  (351) 
0.0000

>  <Gold.PLP.ligand.torsion>  (351) 
0.1223

>  <Gold.PLP.part.buried>  (351) 
-8.8477

>  <Gold.PLP.part.hbond>  (351) 
-6.2478

>  <Gold.PLP.part.metal>  (351) 
0.0000

>  <Gold.PLP.part.nonpolar>  (351) 
-18.4611

>  <Gold.PLP.part.repulsive>  (351) 
0.2031

>  <Gold.Protein.RotatedAtoms>  (351) 


>  <Gold.Protein.RotatedTorsions>  (351) 


>  <Gold.Protein.RotatedWaterAtoms>  (351) 


>  <Gold.Version>  (351) 
5.3.0

>  <PLP.Chemscore.CHOScore>  (351) 


>  <PLP.Chemscore.Hbond>  (351) 


>  <PLP.Chemscore.Internal.Correction>  (351) 


>  <PLP.Chemscore.Metal>  (351) 


>  <PLP.Fitness>  (351) 


>  <PLP.PLP>  (351) 


>  <PLP.ligand.clash>  (351) 


>  <PLP.ligand.torsion>  (351) 


>  <PLP.part.buried>  (351) 


>  <PLP.part.hbond>  (351) 


>  <PLP.part.metal>  (351) 


>  <PLP.part.nonpolar>  (351) 


>  <PLP.part.repulsive>  (351) 


>  <Version>  (351) 


$$$$
351|Compound_186|Compounds_3D_F|sdf|49|dock7|1
     RDKit          3D

 11 10  0  0  0  0  0  0  0  0999 V2000
   -4.9946  -15.8505    9.1965 O   0  0  0  0  0  0  0  0  0  0  0  0
   -5.6569  -16.3957   10.3350 C   0  0  0  0  0  0  0  0  0  0  0  0
   -4.8168  -16.1907   11.6029 C   0  0  0  0  0  0  0  0  0  0  0  0
   -4.7326  -14.7737   11.9302 N   0  0  0  0  0  0  0  0  0  0  0  0
   -5.8220  -13.9701   12.1886 C   0  0  0  0  0  0  0  0  0  0  0  0
   -6.9848  -14.3659   12.1882 O   0  0  0  0  0  0  0  0  0  0  0  0
   -5.4391  -12.5013   12.4069 C   0  0  0  0  0  0  0  0  0  0  0  0
   -4.5964  -12.3647   13.6230 N   0  0  0  0  0  0  0  0  0  0  0  0
   -6.6860  -11.6049   12.4958 C   0  0  0  0  0  0  0  0  0  0  0  0
   -6.3192  -10.1823   12.5391 N   0  0  0  0  0  0  0  0  0  0  0  0
   -5.3842  -16.9634   12.7914 C   0  0  0  0  0  0  0  0  0  0  0  0
  1  2  1  0
  2  3  1  0
  3  4  1  0
  3 11  1  0
  4  5  1  0
  5  6  2  0
  5  7  1  0
  7  8  1  0
  7  9  1  0
  9 10  1  0
M  END
>  <Gold.Gold.Protein.RotatedWaterAtoms>  (352) 


>  <Gold.Id.Protein>  (352) 


>  <Gold.PLP.Chemscore.CHOScore>  (352) 
0.0000

>  <Gold.PLP.Chemscore.Hbond>  (352) 
3.9875

>  <Gold.PLP.Chemscore.Internal.Correction>  (352) 
0.0376

>  <Gold.PLP.Chemscore.Metal>  (352) 
0.0000

>  <Gold.PLP.Fitness>  (352) 
42.4920

>  <Gold.PLP.PLP>  (352) 
-30.7228

>  <Gold.PLP.ligand.clash>  (352) 
0.0000

>  <Gold.PLP.ligand.torsion>  (352) 
0.1154

>  <Gold.PLP.part.buried>  (352) 
-6.2842

>  <Gold.PLP.part.hbond>  (352) 
-7.0000

>  <Gold.PLP.part.metal>  (352) 
0.0000

>  <Gold.PLP.part.nonpolar>  (352) 
-18.8693

>  <Gold.PLP.part.repulsive>  (352) 
0.2292

>  <Gold.Protein.RotatedAtoms>  (352) 


>  <Gold.Protein.RotatedTorsions>  (352) 


>  <Gold.Protein.RotatedWaterAtoms>  (352) 


>  <Gold.Version>  (352) 
5.3.0

>  <PLP.Chemscore.CHOScore>  (352) 


>  <PLP.Chemscore.Hbond>  (352) 


>  <PLP.Chemscore.Internal.Correction>  (352) 


>  <PLP.Chemscore.Metal>  (352) 


>  <PLP.Fitness>  (352) 


>  <PLP.PLP>  (352) 


>  <PLP.ligand.clash>  (352) 


>  <PLP.ligand.torsion>  (352) 


>  <PLP.part.buried>  (352) 


>  <PLP.part.hbond>  (352) 


>  <PLP.part.metal>  (352) 


>  <PLP.part.nonpolar>  (352) 


>  <PLP.part.repulsive>  (352) 


>  <Version>  (352) 


$$$$
352|Compound_186|Compounds_3D_F|sdf|49|dock8|1
     RDKit          3D

 11 10  0  0  0  0  0  0  0  0999 V2000
   -9.5547  -14.5292   12.5458 O   0  0  0  0  0  0  0  0  0  0  0  0
   -8.8145  -13.5031   11.8892 C   0  0  0  0  0  0  0  0  0  0  0  0
   -7.5082  -13.2097   12.6394 C   0  0  0  0  0  0  0  0  0  0  0  0
   -6.6036  -14.3476   12.5442 N   0  0  0  0  0  0  0  0  0  0  0  0
   -6.1689  -14.8971   11.3575 C   0  0  0  0  0  0  0  0  0  0  0  0
   -6.4836  -14.4753   10.2475 O   0  0  0  0  0  0  0  0  0  0  0  0
   -5.3025  -16.1457   11.5624 C   0  0  0  0  0  0  0  0  0  0  0  0
   -3.9097  -15.7552   11.9022 N   0  0  0  0  0  0  0  0  0  0  0  0
   -5.3336  -17.0580   10.3243 C   0  0  0  0  0  0  0  0  0  0  0  0
   -4.7381  -16.3938    9.1563 N   0  0  0  0  0  0  0  0  0  0  0  0
   -6.8184  -11.9546   12.1097 C   0  0  0  0  0  0  0  0  0  0  0  0
  1  2  1  0
  2  3  1  0
  3  4  1  0
  3 11  1  0
  4  5  1  0
  5  6  2  0
  5  7  1  0
  7  8  1  0
  7  9  1  0
  9 10  1  0
M  END
>  <Gold.Gold.Protein.RotatedWaterAtoms>  (353) 


>  <Gold.Id.Protein>  (353) 


>  <Gold.PLP.Chemscore.CHOScore>  (353) 
0.0000

>  <Gold.PLP.Chemscore.Hbond>  (353) 
4.3229

>  <Gold.PLP.Chemscore.Internal.Correction>  (353) 
0.0376

>  <Gold.PLP.Chemscore.Metal>  (353) 
0.0000

>  <Gold.PLP.Fitness>  (353) 
39.7028

>  <Gold.PLP.PLP>  (353) 
-28.0284

>  <Gold.PLP.ligand.clash>  (353) 
0.0000

>  <Gold.PLP.ligand.torsion>  (353) 
0.6660

>  <Gold.PLP.part.buried>  (353) 
-6.2849

>  <Gold.PLP.part.hbond>  (353) 
-6.0000

>  <Gold.PLP.part.metal>  (353) 
0.0000

>  <Gold.PLP.part.nonpolar>  (353) 
-16.7256

>  <Gold.PLP.part.repulsive>  (353) 
0.2730

>  <Gold.Protein.RotatedAtoms>  (353) 


>  <Gold.Protein.RotatedTorsions>  (353) 


>  <Gold.Protein.RotatedWaterAtoms>  (353) 


>  <Gold.Version>  (353) 
5.3.0

>  <PLP.Chemscore.CHOScore>  (353) 


>  <PLP.Chemscore.Hbond>  (353) 


>  <PLP.Chemscore.Internal.Correction>  (353) 


>  <PLP.Chemscore.Metal>  (353) 


>  <PLP.Fitness>  (353) 


>  <PLP.PLP>  (353) 


>  <PLP.ligand.clash>  (353) 


>  <PLP.ligand.torsion>  (353) 


>  <PLP.part.buried>  (353) 


>  <PLP.part.hbond>  (353) 


>  <PLP.part.metal>  (353) 


>  <PLP.part.nonpolar>  (353) 


>  <PLP.part.repulsive>  (353) 


>  <Version>  (353) 


$$$$
353|Compound_186|Compounds_3D_F|sdf|49|dock9|1
     RDKit          3D

 11 10  0  0  0  0  0  0  0  0999 V2000
   -5.3455  -15.3111    9.5137 O   0  0  0  0  0  0  0  0  0  0  0  0
   -5.3704  -16.4821   10.3262 C   0  0  0  0  0  0  0  0  0  0  0  0
   -4.6188  -16.2463   11.6433 C   0  0  0  0  0  0  0  0  0  0  0  0
   -4.6008  -14.8263   11.9682 N   0  0  0  0  0  0  0  0  0  0  0  0
   -5.7266  -14.0734   12.2229 C   0  0  0  0  0  0  0  0  0  0  0  0
   -6.8700  -14.5225   12.2209 O   0  0  0  0  0  0  0  0  0  0  0  0
   -5.4124  -12.5881   12.4393 C   0  0  0  0  0  0  0  0  0  0  0  0
   -4.5991  -12.4084   13.6697 N   0  0  0  0  0  0  0  0  0  0  0  0
   -6.6987  -11.7467   12.4999 C   0  0  0  0  0  0  0  0  0  0  0  0
   -6.3964  -10.3084   12.5049 N   0  0  0  0  0  0  0  0  0  0  0  0
   -5.2348  -17.0334   12.7977 C   0  0  0  0  0  0  0  0  0  0  0  0
  1  2  1  0
  2  3  1  0
  3  4  1  0
  3 11  1  0
  4  5  1  0
  5  6  2  0
  5  7  1  0
  7  8  1  0
  7  9  1  0
  9 10  1  0
M  END
>  <Gold.Gold.Protein.RotatedWaterAtoms>  (354) 


>  <Gold.Id.Protein>  (354) 


>  <Gold.PLP.Chemscore.CHOScore>  (354) 
0.0000

>  <Gold.PLP.Chemscore.Hbond>  (354) 
4.2061

>  <Gold.PLP.Chemscore.Internal.Correction>  (354) 
0.0376

>  <Gold.PLP.Chemscore.Metal>  (354) 
0.0000

>  <Gold.PLP.Fitness>  (354) 
43.3959

>  <Gold.PLP.PLP>  (354) 
-31.8531

>  <Gold.PLP.ligand.clash>  (354) 
0.0000

>  <Gold.PLP.ligand.torsion>  (354) 
0.5565

>  <Gold.PLP.part.buried>  (354) 
-6.7513

>  <Gold.PLP.part.hbond>  (354) 
-7.7233

>  <Gold.PLP.part.metal>  (354) 
0.0000

>  <Gold.PLP.part.nonpolar>  (354) 
-19.3102

>  <Gold.PLP.part.repulsive>  (354) 
0.2439

>  <Gold.Protein.RotatedAtoms>  (354) 


>  <Gold.Protein.RotatedTorsions>  (354) 


>  <Gold.Protein.RotatedWaterAtoms>  (354) 


>  <Gold.Version>  (354) 
5.3.0

>  <PLP.Chemscore.CHOScore>  (354) 


>  <PLP.Chemscore.Hbond>  (354) 


>  <PLP.Chemscore.Internal.Correction>  (354) 


>  <PLP.Chemscore.Metal>  (354) 


>  <PLP.Fitness>  (354) 


>  <PLP.PLP>  (354) 


>  <PLP.ligand.clash>  (354) 


>  <PLP.ligand.torsion>  (354) 


>  <PLP.part.buried>  (354) 


>  <PLP.part.hbond>  (354) 


>  <PLP.part.metal>  (354) 


>  <PLP.part.nonpolar>  (354) 


>  <PLP.part.repulsive>  (354) 


>  <Version>  (354) 


$$$$
354|Compound_8|Compounds_3D_F|sdf|4|dock10|1
     RDKit          3D

  8  7  0  0  0  0  0  0  0  0999 V2000
  -10.2940  -14.4658   12.7981 O   0  0  0  0  0  0  0  0  0  0  0  0
   -9.4043  -13.3986   12.4653 C   0  0  0  0  0  0  0  0  0  0  0  0
   -8.1829  -13.9609   11.7363 C   0  0  0  0  0  0  0  0  0  0  0  0
   -8.5686  -14.3723   10.3838 N   0  0  0  0  0  0  0  0  0  0  0  0
   -8.4357  -15.6598   10.0068 C   0  0  0  0  0  0  0  0  0  0  0  0
   -7.9978  -16.4768   10.7881 O   0  0  0  0  0  0  0  0  0  0  0  0
   -8.8483  -16.0999    8.5580 B   0  0  0  0  0  0  0  0  0  0  0  0
   -7.0986  -12.8846   11.6524 C   0  0  0  0  0  0  0  0  0  0  0  0
  1  2  1  0
  2  3  1  0
  3  4  1  0
  3  8  1  0
  4  5  1  0
  5  6  2  0
  5  7  1  0
M  END
>  <Gold.Gold.Protein.RotatedWaterAtoms>  (355) 


>  <Gold.Id.Protein>  (355) 


>  <Gold.PLP.Chemscore.CHOScore>  (355) 
0.0000

>  <Gold.PLP.Chemscore.Hbond>  (355) 
3.0070

>  <Gold.PLP.Chemscore.Internal.Correction>  (355) 
0.0000

>  <Gold.PLP.Chemscore.Metal>  (355) 
0.0000

>  <Gold.PLP.Fitness>  (355) 
31.3843

>  <Gold.PLP.PLP>  (355) 
-22.5168

>  <Gold.PLP.ligand.clash>  (355) 
0.0000

>  <Gold.PLP.ligand.torsion>  (355) 
0.0768

>  <Gold.PLP.part.buried>  (355) 
-3.5926

>  <Gold.PLP.part.hbond>  (355) 
-3.9541

>  <Gold.PLP.part.metal>  (355) 
0.0000

>  <Gold.PLP.part.nonpolar>  (355) 
-14.2494

>  <Gold.PLP.part.repulsive>  (355) 
0.1185

>  <Gold.Protein.RotatedAtoms>  (355) 


>  <Gold.Protein.RotatedTorsions>  (355) 


>  <Gold.Protein.RotatedWaterAtoms>  (355) 


>  <Gold.Version>  (355) 
5.3.0

>  <PLP.Chemscore.CHOScore>  (355) 


>  <PLP.Chemscore.Hbond>  (355) 


>  <PLP.Chemscore.Internal.Correction>  (355) 


>  <PLP.Chemscore.Metal>  (355) 


>  <PLP.Fitness>  (355) 


>  <PLP.PLP>  (355) 


>  <PLP.ligand.clash>  (355) 


>  <PLP.ligand.torsion>  (355) 


>  <PLP.part.buried>  (355) 


>  <PLP.part.hbond>  (355) 


>  <PLP.part.metal>  (355) 


>  <PLP.part.nonpolar>  (355) 


>  <PLP.part.repulsive>  (355) 


>  <Version>  (355) 


$$$$
355|Compound_192|Compounds_3D_F|sdf|50|dock1|1
     RDKit          3D

 11 10  0  0  0  0  0  0  0  0999 V2000
   -7.7995  -11.9268   11.5998 N   0  0  0  0  0  0  0  0  0  0  0  0
   -6.6536  -11.4588   12.3914 C   0  0  0  0  0  0  0  0  0  0  0  0
   -5.4902  -12.4611   12.3213 C   0  0  0  0  0  0  0  0  0  0  0  0
   -4.4916  -12.2040   13.3935 N   0  0  0  0  0  0  0  0  0  0  0  0
   -5.9975  -13.9042   12.4056 C   0  0  0  0  0  0  0  0  0  0  0  0
   -7.1875  -14.1975   12.4649 O   0  0  0  0  0  0  0  0  0  0  0  0
   -4.9757  -14.8297   12.3311 N   0  0  0  0  0  0  0  0  0  0  0  0
   -5.2005  -16.2583   12.3036 C   0  0  0  0  0  0  0  0  0  0  0  0
   -4.3295  -16.9550   11.2510 C   0  0  0  0  0  0  0  0  0  0  0  0
   -4.3730  -16.2299    9.9787 N   0  0  0  0  0  0  0  0  0  0  0  0
   -3.7646  -17.0192    8.9144 C   0  0  0  0  0  0  0  0  0  0  0  0
  1  2  1  0
  2  3  1  0
  3  4  1  0
  3  5  1  0
  5  6  2  0
  5  7  1  0
  7  8  1  0
  8  9  1  0
  9 10  1  0
 10 11  1  0
M  END
>  <Gold.Gold.Protein.RotatedWaterAtoms>  (356) 


>  <Gold.Id.Protein>  (356) 


>  <Gold.PLP.Chemscore.CHOScore>  (356) 
0.0000

>  <Gold.PLP.Chemscore.Hbond>  (356) 
3.3545

>  <Gold.PLP.Chemscore.Internal.Correction>  (356) 
0.0522

>  <Gold.PLP.Chemscore.Metal>  (356) 
0.0000

>  <Gold.PLP.Fitness>  (356) 
39.6739

>  <Gold.PLP.PLP>  (356) 
-30.2744

>  <Gold.PLP.ligand.clash>  (356) 
0.0000

>  <Gold.PLP.ligand.torsion>  (356) 
0.3581

>  <Gold.PLP.part.buried>  (356) 
-7.0731

>  <Gold.PLP.part.hbond>  (356) 
-4.8256

>  <Gold.PLP.part.metal>  (356) 
0.0000

>  <Gold.PLP.part.nonpolar>  (356) 
-18.7898

>  <Gold.PLP.part.repulsive>  (356) 
0.2032

>  <Gold.Protein.RotatedAtoms>  (356) 


>  <Gold.Protein.RotatedTorsions>  (356) 


>  <Gold.Protein.RotatedWaterAtoms>  (356) 


>  <Gold.Version>  (356) 
5.3.0

>  <PLP.Chemscore.CHOScore>  (356) 


>  <PLP.Chemscore.Hbond>  (356) 


>  <PLP.Chemscore.Internal.Correction>  (356) 


>  <PLP.Chemscore.Metal>  (356) 


>  <PLP.Fitness>  (356) 


>  <PLP.PLP>  (356) 


>  <PLP.ligand.clash>  (356) 


>  <PLP.ligand.torsion>  (356) 


>  <PLP.part.buried>  (356) 


>  <PLP.part.hbond>  (356) 


>  <PLP.part.metal>  (356) 


>  <PLP.part.nonpolar>  (356) 


>  <PLP.part.repulsive>  (356) 


>  <Version>  (356) 


$$$$
356|Compound_192|Compounds_3D_F|sdf|50|dock2|1
     RDKit          3D

 11 10  0  0  0  0  0  0  0  0999 V2000
   -7.9808  -12.5245   11.5512 N   0  0  0  0  0  0  0  0  0  0  0  0
   -6.9424  -12.0963   12.4984 C   0  0  0  0  0  0  0  0  0  0  0  0
   -5.6184  -12.8309   12.2325 C   0  0  0  0  0  0  0  0  0  0  0  0
   -4.6041  -12.5073   13.2715 N   0  0  0  0  0  0  0  0  0  0  0  0
   -5.8322  -14.3459   12.1553 C   0  0  0  0  0  0  0  0  0  0  0  0
   -6.8914  -14.8925   12.4468 O   0  0  0  0  0  0  0  0  0  0  0  0
   -4.7316  -15.0108   11.6526 N   0  0  0  0  0  0  0  0  0  0  0  0
   -4.7120  -16.4354   11.4027 C   0  0  0  0  0  0  0  0  0  0  0  0
   -3.4690  -17.1049   12.0018 C   0  0  0  0  0  0  0  0  0  0  0  0
   -2.4239  -17.2617   10.9871 N   0  0  0  0  0  0  0  0  0  0  0  0
   -2.9826  -17.7918    9.7491 C   0  0  0  0  0  0  0  0  0  0  0  0
  1  2  1  0
  2  3  1  0
  3  4  1  0
  3  5  1  0
  5  6  2  0
  5  7  1  0
  7  8  1  0
  8  9  1  0
  9 10  1  0
 10 11  1  0
M  END
>  <Gold.Gold.Protein.RotatedWaterAtoms>  (357) 


>  <Gold.Id.Protein>  (357) 


>  <Gold.PLP.Chemscore.CHOScore>  (357) 
0.0000

>  <Gold.PLP.Chemscore.Hbond>  (357) 
3.2672

>  <Gold.PLP.Chemscore.Internal.Correction>  (357) 
0.0522

>  <Gold.PLP.Chemscore.Metal>  (357) 
0.0000

>  <Gold.PLP.Fitness>  (357) 
38.2511

>  <Gold.PLP.PLP>  (357) 
-29.4771

>  <Gold.PLP.ligand.clash>  (357) 
0.0000

>  <Gold.PLP.ligand.torsion>  (357) 
0.5399

>  <Gold.PLP.part.buried>  (357) 
-7.2099

>  <Gold.PLP.part.hbond>  (357) 
-5.5132

>  <Gold.PLP.part.metal>  (357) 
0.0000

>  <Gold.PLP.part.nonpolar>  (357) 
-17.2509

>  <Gold.PLP.part.repulsive>  (357) 
0.2294

>  <Gold.Protein.RotatedAtoms>  (357) 


>  <Gold.Protein.RotatedTorsions>  (357) 


>  <Gold.Protein.RotatedWaterAtoms>  (357) 


>  <Gold.Version>  (357) 
5.3.0

>  <PLP.Chemscore.CHOScore>  (357) 


>  <PLP.Chemscore.Hbond>  (357) 


>  <PLP.Chemscore.Internal.Correction>  (357) 


>  <PLP.Chemscore.Metal>  (357) 


>  <PLP.Fitness>  (357) 


>  <PLP.PLP>  (357) 


>  <PLP.ligand.clash>  (357) 


>  <PLP.ligand.torsion>  (357) 


>  <PLP.part.buried>  (357) 


>  <PLP.part.hbond>  (357) 


>  <PLP.part.metal>  (357) 


>  <PLP.part.nonpolar>  (357) 


>  <PLP.part.repulsive>  (357) 


>  <Version>  (357) 


$$$$
357|Compound_192|Compounds_3D_F|sdf|50|dock3|1
     RDKit          3D

 11 10  0  0  0  0  0  0  0  0999 V2000
   -7.4220  -10.7325   11.4570 N   0  0  0  0  0  0  0  0  0  0  0  0
   -6.3923  -10.8340   12.5001 C   0  0  0  0  0  0  0  0  0  0  0  0
   -5.5088  -12.0730   12.2825 C   0  0  0  0  0  0  0  0  0  0  0  0
   -4.4829  -12.1985   13.3525 N   0  0  0  0  0  0  0  0  0  0  0  0
   -6.3537  -13.3487   12.2075 C   0  0  0  0  0  0  0  0  0  0  0  0
   -7.5332  -13.3962   12.5428 O   0  0  0  0  0  0  0  0  0  0  0  0
   -5.6640  -14.4086   11.6534 N   0  0  0  0  0  0  0  0  0  0  0  0
   -6.2662  -15.6984   11.3959 C   0  0  0  0  0  0  0  0  0  0  0  0
   -5.3940  -16.5648   10.4790 C   0  0  0  0  0  0  0  0  0  0  0  0
   -3.9753  -16.4023   10.8067 N   0  0  0  0  0  0  0  0  0  0  0  0
   -3.7277  -16.7346   12.2046 C   0  0  0  0  0  0  0  0  0  0  0  0
  1  2  1  0
  2  3  1  0
  3  4  1  0
  3  5  1  0
  5  6  2  0
  5  7  1  0
  7  8  1  0
  8  9  1  0
  9 10  1  0
 10 11  1  0
M  END
>  <Gold.Gold.Protein.RotatedWaterAtoms>  (358) 


>  <Gold.Id.Protein>  (358) 


>  <Gold.PLP.Chemscore.CHOScore>  (358) 
0.0000

>  <Gold.PLP.Chemscore.Hbond>  (358) 
4.2363

>  <Gold.PLP.Chemscore.Internal.Correction>  (358) 
0.0398

>  <Gold.PLP.Chemscore.Metal>  (358) 
0.0000

>  <Gold.PLP.Fitness>  (358) 
41.2092

>  <Gold.PLP.PLP>  (358) 
-29.4632

>  <Gold.PLP.ligand.clash>  (358) 
0.0000

>  <Gold.PLP.ligand.torsion>  (358) 
0.5014

>  <Gold.PLP.part.buried>  (358) 
-7.2965

>  <Gold.PLP.part.hbond>  (358) 
-5.5746

>  <Gold.PLP.part.metal>  (358) 
0.0000

>  <Gold.PLP.part.nonpolar>  (358) 
-17.0575

>  <Gold.PLP.part.repulsive>  (358) 
0.2003

>  <Gold.Protein.RotatedAtoms>  (358) 


>  <Gold.Protein.RotatedTorsions>  (358) 


>  <Gold.Protein.RotatedWaterAtoms>  (358) 


>  <Gold.Version>  (358) 
5.3.0

>  <PLP.Chemscore.CHOScore>  (358) 


>  <PLP.Chemscore.Hbond>  (358) 


>  <PLP.Chemscore.Internal.Correction>  (358) 


>  <PLP.Chemscore.Metal>  (358) 


>  <PLP.Fitness>  (358) 


>  <PLP.PLP>  (358) 


>  <PLP.ligand.clash>  (358) 


>  <PLP.ligand.torsion>  (358) 


>  <PLP.part.buried>  (358) 


>  <PLP.part.hbond>  (358) 


>  <PLP.part.metal>  (358) 


>  <PLP.part.nonpolar>  (358) 


>  <PLP.part.repulsive>  (358) 


>  <Version>  (358) 


$$$$
358|Compound_192|Compounds_3D_F|sdf|50|dock4|1
     RDKit          3D

 11 10  0  0  0  0  0  0  0  0999 V2000
   -6.6457  -10.5872   11.9032 N   0  0  0  0  0  0  0  0  0  0  0  0
   -6.8009  -11.9248   12.4911 C   0  0  0  0  0  0  0  0  0  0  0  0
   -5.5008  -12.7355   12.3651 C   0  0  0  0  0  0  0  0  0  0  0  0
   -4.5473  -12.3986   13.4561 N   0  0  0  0  0  0  0  0  0  0  0  0
   -5.7861  -14.2406   12.3575 C   0  0  0  0  0  0  0  0  0  0  0  0
   -6.9097  -14.7140   12.4954 O   0  0  0  0  0  0  0  0  0  0  0  0
   -4.6560  -14.9923   12.1042 N   0  0  0  0  0  0  0  0  0  0  0  0
   -4.6768  -16.4316   11.9618 C   0  0  0  0  0  0  0  0  0  0  0  0
   -4.9253  -16.8599   10.5103 C   0  0  0  0  0  0  0  0  0  0  0  0
   -5.2356  -15.6989    9.6723 N   0  0  0  0  0  0  0  0  0  0  0  0
   -5.5026  -16.1107    8.2993 C   0  0  0  0  0  0  0  0  0  0  0  0
  1  2  1  0
  2  3  1  0
  3  4  1  0
  3  5  1  0
  5  6  2  0
  5  7  1  0
  7  8  1  0
  8  9  1  0
  9 10  1  0
 10 11  1  0
M  END
>  <Gold.Gold.Protein.RotatedWaterAtoms>  (359) 


>  <Gold.Id.Protein>  (359) 


>  <Gold.PLP.Chemscore.CHOScore>  (359) 
0.0000

>  <Gold.PLP.Chemscore.Hbond>  (359) 
3.6320

>  <Gold.PLP.Chemscore.Internal.Correction>  (359) 
0.0398

>  <Gold.PLP.Chemscore.Metal>  (359) 
0.0000

>  <Gold.PLP.Fitness>  (359) 
40.6238

>  <Gold.PLP.PLP>  (359) 
-31.3773

>  <Gold.PLP.ligand.clash>  (359) 
0.0000

>  <Gold.PLP.ligand.torsion>  (359) 
0.8446

>  <Gold.PLP.part.buried>  (359) 
-8.0944

>  <Gold.PLP.part.hbond>  (359) 
-6.7995

>  <Gold.PLP.part.metal>  (359) 
0.0000

>  <Gold.PLP.part.nonpolar>  (359) 
-17.7094

>  <Gold.PLP.part.repulsive>  (359) 
0.2287

>  <Gold.Protein.RotatedAtoms>  (359) 


>  <Gold.Protein.RotatedTorsions>  (359) 


>  <Gold.Protein.RotatedWaterAtoms>  (359) 


>  <Gold.Version>  (359) 
5.3.0

>  <PLP.Chemscore.CHOScore>  (359) 


>  <PLP.Chemscore.Hbond>  (359) 


>  <PLP.Chemscore.Internal.Correction>  (359) 


>  <PLP.Chemscore.Metal>  (359) 


>  <PLP.Fitness>  (359) 


>  <PLP.PLP>  (359) 


>  <PLP.ligand.clash>  (359) 


>  <PLP.ligand.torsion>  (359) 


>  <PLP.part.buried>  (359) 


>  <PLP.part.hbond>  (359) 


>  <PLP.part.metal>  (359) 


>  <PLP.part.nonpolar>  (359) 


>  <PLP.part.repulsive>  (359) 


>  <Version>  (359) 


$$$$
359|Compound_192|Compounds_3D_F|sdf|50|dock5|1
     RDKit          3D

 11 10  0  0  0  0  0  0  0  0999 V2000
  -10.0178  -13.1711   10.7092 N   0  0  0  0  0  0  0  0  0  0  0  0
   -8.6961  -12.9266   11.3026 C   0  0  0  0  0  0  0  0  0  0  0  0
   -8.4161  -13.9130   12.4479 C   0  0  0  0  0  0  0  0  0  0  0  0
   -9.4034  -15.0257   12.4548 N   0  0  0  0  0  0  0  0  0  0  0  0
   -6.9916  -14.4701   12.3622 C   0  0  0  0  0  0  0  0  0  0  0  0
   -5.9907  -13.7988   12.5932 O   0  0  0  0  0  0  0  0  0  0  0  0
   -6.9676  -15.8198   12.0728 N   0  0  0  0  0  0  0  0  0  0  0  0
   -5.7493  -16.5979   12.0208 C   0  0  0  0  0  0  0  0  0  0  0  0
   -5.3511  -16.9428   10.5805 C   0  0  0  0  0  0  0  0  0  0  0  0
   -3.9358  -16.6439   10.3475 N   0  0  0  0  0  0  0  0  0  0  0  0
   -3.0989  -17.3041   11.3423 C   0  0  0  0  0  0  0  0  0  0  0  0
  1  2  1  0
  2  3  1  0
  3  4  1  0
  3  5  1  0
  5  6  2  0
  5  7  1  0
  7  8  1  0
  8  9  1  0
  9 10  1  0
 10 11  1  0
M  END
>  <Gold.Gold.Protein.RotatedWaterAtoms>  (360) 


>  <Gold.Id.Protein>  (360) 


>  <Gold.PLP.Chemscore.CHOScore>  (360) 
0.0000

>  <Gold.PLP.Chemscore.Hbond>  (360) 
4.6880

>  <Gold.PLP.Chemscore.Internal.Correction>  (360) 
0.0398

>  <Gold.PLP.Chemscore.Metal>  (360) 
0.0000

>  <Gold.PLP.Fitness>  (360) 
36.7919

>  <Gold.PLP.PLP>  (360) 
-25.2865

>  <Gold.PLP.ligand.clash>  (360) 
0.0000

>  <Gold.PLP.ligand.torsion>  (360) 
1.2992

>  <Gold.PLP.part.buried>  (360) 
-3.7413

>  <Gold.PLP.part.hbond>  (360) 
-5.0055

>  <Gold.PLP.part.metal>  (360) 
0.0000

>  <Gold.PLP.part.nonpolar>  (360) 
-16.4447

>  <Gold.PLP.part.repulsive>  (360) 
0.2716

>  <Gold.Protein.RotatedAtoms>  (360) 


>  <Gold.Protein.RotatedTorsions>  (360) 


>  <Gold.Protein.RotatedWaterAtoms>  (360) 


>  <Gold.Version>  (360) 
5.3.0

>  <PLP.Chemscore.CHOScore>  (360) 


>  <PLP.Chemscore.Hbond>  (360) 


>  <PLP.Chemscore.Internal.Correction>  (360) 


>  <PLP.Chemscore.Metal>  (360) 


>  <PLP.Fitness>  (360) 


>  <PLP.PLP>  (360) 


>  <PLP.ligand.clash>  (360) 


>  <PLP.ligand.torsion>  (360) 


>  <PLP.part.buried>  (360) 


>  <PLP.part.hbond>  (360) 


>  <PLP.part.metal>  (360) 


>  <PLP.part.nonpolar>  (360) 


>  <PLP.part.repulsive>  (360) 


>  <Version>  (360) 


$$$$
360|Compound_192|Compounds_3D_F|sdf|50|dock6|1
     RDKit          3D

 11 10  0  0  0  0  0  0  0  0999 V2000
   -7.4153  -12.6204   12.2311 N   0  0  0  0  0  0  0  0  0  0  0  0
   -7.2731  -14.0718   12.0528 C   0  0  0  0  0  0  0  0  0  0  0  0
   -8.6392  -14.7324   11.8064 C   0  0  0  0  0  0  0  0  0  0  0  0
   -9.3714  -14.0603   10.6996 N   0  0  0  0  0  0  0  0  0  0  0  0
   -8.4850  -16.2271   11.5081 C   0  0  0  0  0  0  0  0  0  0  0  0
   -7.4191  -16.8271   11.6054 O   0  0  0  0  0  0  0  0  0  0  0  0
   -9.6863  -16.8308   11.1941 N   0  0  0  0  0  0  0  0  0  0  0  0
   -9.8211  -18.2509   10.9545 C   0  0  0  0  0  0  0  0  0  0  0  0
  -10.9612  -18.8647   11.7763 C   0  0  0  0  0  0  0  0  0  0  0  0
  -11.8317  -17.8186   12.3188 N   0  0  0  0  0  0  0  0  0  0  0  0
  -13.2336  -18.2003   12.1979 C   0  0  0  0  0  0  0  0  0  0  0  0
  1  2  1  0
  2  3  1  0
  3  4  1  0
  3  5  1  0
  5  6  2  0
  5  7  1  0
  7  8  1  0
  8  9  1  0
  9 10  1  0
 10 11  1  0
M  END
>  <Gold.Gold.Protein.RotatedWaterAtoms>  (361) 


>  <Gold.Id.Protein>  (361) 


>  <Gold.PLP.Chemscore.CHOScore>  (361) 
0.0000

>  <Gold.PLP.Chemscore.Hbond>  (361) 
3.3494

>  <Gold.PLP.Chemscore.Internal.Correction>  (361) 
0.0398

>  <Gold.PLP.Chemscore.Metal>  (361) 
0.0000

>  <Gold.PLP.Fitness>  (361) 
35.2054

>  <Gold.PLP.PLP>  (361) 
-26.7377

>  <Gold.PLP.ligand.clash>  (361) 
0.0000

>  <Gold.PLP.ligand.torsion>  (361) 
0.8102

>  <Gold.PLP.part.buried>  (361) 
-6.1429

>  <Gold.PLP.part.hbond>  (361) 
-5.0000

>  <Gold.PLP.part.metal>  (361) 
0.0000

>  <Gold.PLP.part.nonpolar>  (361) 
-15.6139

>  <Gold.PLP.part.repulsive>  (361) 
0.0766

>  <Gold.Protein.RotatedAtoms>  (361) 


>  <Gold.Protein.RotatedTorsions>  (361) 


>  <Gold.Protein.RotatedWaterAtoms>  (361) 


>  <Gold.Version>  (361) 
5.3.0

>  <PLP.Chemscore.CHOScore>  (361) 


>  <PLP.Chemscore.Hbond>  (361) 


>  <PLP.Chemscore.Internal.Correction>  (361) 


>  <PLP.Chemscore.Metal>  (361) 


>  <PLP.Fitness>  (361) 


>  <PLP.PLP>  (361) 


>  <PLP.ligand.clash>  (361) 


>  <PLP.ligand.torsion>  (361) 


>  <PLP.part.buried>  (361) 


>  <PLP.part.hbond>  (361) 


>  <PLP.part.metal>  (361) 


>  <PLP.part.nonpolar>  (361) 


>  <PLP.part.repulsive>  (361) 


>  <Version>  (361) 


$$$$
361|Compound_192|Compounds_3D_F|sdf|50|dock7|1
     RDKit          3D

 11 10  0  0  0  0  0  0  0  0999 V2000
   -8.5078   -9.8026   10.6000 N   0  0  0  0  0  0  0  0  0  0  0  0
   -7.8943   -9.9380   11.9281 C   0  0  0  0  0  0  0  0  0  0  0  0
   -6.7493  -10.9635   11.9034 C   0  0  0  0  0  0  0  0  0  0  0  0
   -5.7884  -10.7258   13.0139 N   0  0  0  0  0  0  0  0  0  0  0  0
   -7.2883  -12.3960   11.9675 C   0  0  0  0  0  0  0  0  0  0  0  0
   -8.4751  -12.6761   11.8301 O   0  0  0  0  0  0  0  0  0  0  0  0
   -6.2855  -13.3326   12.1201 N   0  0  0  0  0  0  0  0  0  0  0  0
   -6.5266  -14.7588   12.1234 C   0  0  0  0  0  0  0  0  0  0  0  0
   -5.2382  -15.5569   12.3583 C   0  0  0  0  0  0  0  0  0  0  0  0
   -4.6631  -16.0006   11.0859 N   0  0  0  0  0  0  0  0  0  0  0  0
   -3.6028  -16.9757   11.3115 C   0  0  0  0  0  0  0  0  0  0  0  0
  1  2  1  0
  2  3  1  0
  3  4  1  0
  3  5  1  0
  5  6  2  0
  5  7  1  0
  7  8  1  0
  8  9  1  0
  9 10  1  0
 10 11  1  0
M  END
>  <Gold.Gold.Protein.RotatedWaterAtoms>  (362) 


>  <Gold.Id.Protein>  (362) 


>  <Gold.PLP.Chemscore.CHOScore>  (362) 
0.0000

>  <Gold.PLP.Chemscore.Hbond>  (362) 
2.6400

>  <Gold.PLP.Chemscore.Internal.Correction>  (362) 
0.0398

>  <Gold.PLP.Chemscore.Metal>  (362) 
0.0000

>  <Gold.PLP.Fitness>  (362) 
43.0958

>  <Gold.PLP.PLP>  (362) 
-36.6268

>  <Gold.PLP.ligand.clash>  (362) 
0.0000

>  <Gold.PLP.ligand.torsion>  (362) 
0.7454

>  <Gold.PLP.part.buried>  (362) 
-7.2317

>  <Gold.PLP.part.hbond>  (362) 
-6.3317

>  <Gold.PLP.part.metal>  (362) 
0.0000

>  <Gold.PLP.part.nonpolar>  (362) 
-23.4428

>  <Gold.PLP.part.repulsive>  (362) 
0.2165

>  <Gold.Protein.RotatedAtoms>  (362) 


>  <Gold.Protein.RotatedTorsions>  (362) 


>  <Gold.Protein.RotatedWaterAtoms>  (362) 


>  <Gold.Version>  (362) 
5.3.0

>  <PLP.Chemscore.CHOScore>  (362) 


>  <PLP.Chemscore.Hbond>  (362) 


>  <PLP.Chemscore.Internal.Correction>  (362) 


>  <PLP.Chemscore.Metal>  (362) 


>  <PLP.Fitness>  (362) 


>  <PLP.PLP>  (362) 


>  <PLP.ligand.clash>  (362) 


>  <PLP.ligand.torsion>  (362) 


>  <PLP.part.buried>  (362) 


>  <PLP.part.hbond>  (362) 


>  <PLP.part.metal>  (362) 


>  <PLP.part.nonpolar>  (362) 


>  <PLP.part.repulsive>  (362) 


>  <Version>  (362) 


$$$$
362|Compound_192|Compounds_3D_F|sdf|50|dock8|1
     RDKit          3D

 11 10  0  0  0  0  0  0  0  0999 V2000
   -7.8250  -12.8037   11.4559 N   0  0  0  0  0  0  0  0  0  0  0  0
   -6.9094  -12.3022   12.4897 C   0  0  0  0  0  0  0  0  0  0  0  0
   -5.5019  -12.8946   12.3126 C   0  0  0  0  0  0  0  0  0  0  0  0
   -4.6023  -12.4896   13.4259 N   0  0  0  0  0  0  0  0  0  0  0  0
   -5.5543  -14.4218   12.2035 C   0  0  0  0  0  0  0  0  0  0  0  0
   -6.6021  -15.0567   12.1347 O   0  0  0  0  0  0  0  0  0  0  0  0
   -4.2989  -14.9896   12.1156 N   0  0  0  0  0  0  0  0  0  0  0  0
   -4.0814  -16.4062   11.9201 C   0  0  0  0  0  0  0  0  0  0  0  0
   -4.9669  -16.9728   10.8035 C   0  0  0  0  0  0  0  0  0  0  0  0
   -4.7703  -16.2285    9.5569 N   0  0  0  0  0  0  0  0  0  0  0  0
   -3.9570  -16.9957    8.6212 C   0  0  0  0  0  0  0  0  0  0  0  0
  1  2  1  0
  2  3  1  0
  3  4  1  0
  3  5  1  0
  5  6  2  0
  5  7  1  0
  7  8  1  0
  8  9  1  0
  9 10  1  0
 10 11  1  0
M  END
>  <Gold.Gold.Protein.RotatedWaterAtoms>  (363) 


>  <Gold.Id.Protein>  (363) 


>  <Gold.PLP.Chemscore.CHOScore>  (363) 
0.0000

>  <Gold.PLP.Chemscore.Hbond>  (363) 
3.4950

>  <Gold.PLP.Chemscore.Internal.Correction>  (363) 
0.0398

>  <Gold.PLP.Chemscore.Metal>  (363) 
0.0000

>  <Gold.PLP.Fitness>  (363) 
38.7984

>  <Gold.PLP.PLP>  (363) 
-29.3249

>  <Gold.PLP.ligand.clash>  (363) 
0.0000

>  <Gold.PLP.ligand.torsion>  (363) 
0.5257

>  <Gold.PLP.part.buried>  (363) 
-7.0083

>  <Gold.PLP.part.hbond>  (363) 
-6.0000

>  <Gold.PLP.part.metal>  (363) 
0.0000

>  <Gold.PLP.part.nonpolar>  (363) 
-16.7928

>  <Gold.PLP.part.repulsive>  (363) 
0.2515

>  <Gold.Protein.RotatedAtoms>  (363) 


>  <Gold.Protein.RotatedTorsions>  (363) 


>  <Gold.Protein.RotatedWaterAtoms>  (363) 


>  <Gold.Version>  (363) 
5.3.0

>  <PLP.Chemscore.CHOScore>  (363) 


>  <PLP.Chemscore.Hbond>  (363) 


>  <PLP.Chemscore.Internal.Correction>  (363) 


>  <PLP.Chemscore.Metal>  (363) 


>  <PLP.Fitness>  (363) 


>  <PLP.PLP>  (363) 


>  <PLP.ligand.clash>  (363) 


>  <PLP.ligand.torsion>  (363) 


>  <PLP.part.buried>  (363) 


>  <PLP.part.hbond>  (363) 


>  <PLP.part.metal>  (363) 


>  <PLP.part.nonpolar>  (363) 


>  <PLP.part.repulsive>  (363) 


>  <Version>  (363) 


$$$$
363|Compound_192|Compounds_3D_F|sdf|50|dock9|1
     RDKit          3D

 11 10  0  0  0  0  0  0  0  0999 V2000
   -8.2344   -9.7063   10.7000 N   0  0  0  0  0  0  0  0  0  0  0  0
   -7.5520   -9.8689   11.9909 C   0  0  0  0  0  0  0  0  0  0  0  0
   -6.5541  -11.0372   11.9426 C   0  0  0  0  0  0  0  0  0  0  0  0
   -5.5801  -10.9613   13.0645 N   0  0  0  0  0  0  0  0  0  0  0  0
   -7.2801  -12.3860   11.9624 C   0  0  0  0  0  0  0  0  0  0  0  0
   -8.5008  -12.4950   11.9010 O   0  0  0  0  0  0  0  0  0  0  0  0
   -6.4081  -13.4563   11.9804 N   0  0  0  0  0  0  0  0  0  0  0  0
   -6.8431  -14.8344   11.9171 C   0  0  0  0  0  0  0  0  0  0  0  0
   -5.7371  -15.8046   12.3499 C   0  0  0  0  0  0  0  0  0  0  0  0
   -4.7206  -15.9336   11.3027 N   0  0  0  0  0  0  0  0  0  0  0  0
   -3.6170  -16.7717   11.7559 C   0  0  0  0  0  0  0  0  0  0  0  0
  1  2  1  0
  2  3  1  0
  3  4  1  0
  3  5  1  0
  5  6  2  0
  5  7  1  0
  7  8  1  0
  8  9  1  0
  9 10  1  0
 10 11  1  0
M  END
>  <Gold.Gold.Protein.RotatedWaterAtoms>  (364) 


>  <Gold.Id.Protein>  (364) 


>  <Gold.PLP.Chemscore.CHOScore>  (364) 
0.0000

>  <Gold.PLP.Chemscore.Hbond>  (364) 
3.0190

>  <Gold.PLP.Chemscore.Internal.Correction>  (364) 
0.0398

>  <Gold.PLP.Chemscore.Metal>  (364) 
0.0000

>  <Gold.PLP.Fitness>  (364) 
43.5601

>  <Gold.PLP.PLP>  (364) 
-35.2160

>  <Gold.PLP.ligand.clash>  (364) 
0.0000

>  <Gold.PLP.ligand.torsion>  (364) 
0.3763

>  <Gold.PLP.part.buried>  (364) 
-6.7890

>  <Gold.PLP.part.hbond>  (364) 
-6.7016

>  <Gold.PLP.part.metal>  (364) 
0.0000

>  <Gold.PLP.part.nonpolar>  (364) 
-22.1569

>  <Gold.PLP.part.repulsive>  (364) 
0.2167

>  <Gold.Protein.RotatedAtoms>  (364) 


>  <Gold.Protein.RotatedTorsions>  (364) 


>  <Gold.Protein.RotatedWaterAtoms>  (364) 


>  <Gold.Version>  (364) 
5.3.0

>  <PLP.Chemscore.CHOScore>  (364) 


>  <PLP.Chemscore.Hbond>  (364) 


>  <PLP.Chemscore.Internal.Correction>  (364) 


>  <PLP.Chemscore.Metal>  (364) 


>  <PLP.Fitness>  (364) 


>  <PLP.PLP>  (364) 


>  <PLP.ligand.clash>  (364) 


>  <PLP.ligand.torsion>  (364) 


>  <PLP.part.buried>  (364) 


>  <PLP.part.hbond>  (364) 


>  <PLP.part.metal>  (364) 


>  <PLP.part.nonpolar>  (364) 


>  <PLP.part.repulsive>  (364) 


>  <Version>  (364) 


$$$$
364|Compound_195|Compounds_3D_F|sdf|51|dock1|1
     RDKit          3D

 13 12  0  0  0  0  0  0  0  0999 V2000
   -7.7803  -12.9392   12.0697 O   0  0  0  0  0  0  0  0  0  0  0  0
   -8.6851  -13.9329   11.9225 C   0  0  0  0  0  0  0  0  0  0  0  0
   -9.8571  -13.7432   12.2087 O   0  0  0  0  0  0  0  0  0  0  0  0
   -8.0448  -15.2133   11.4058 C   0  0  0  0  0  0  0  0  0  0  0  0
   -9.0729  -16.2269   11.2256 N   0  0  0  0  0  0  0  0  0  0  0  0
   -8.8101  -17.5030   10.7811 C   0  0  0  0  0  0  0  0  0  0  0  0
   -7.6826  -17.9149   10.5234 O   0  0  0  0  0  0  0  0  0  0  0  0
  -10.0781  -18.3331   10.5613 C   0  0  0  0  0  0  0  0  0  0  0  0
  -11.0289  -17.5962    9.6893 N   0  0  0  0  0  0  0  0  0  0  0  0
  -10.7331  -18.7116   11.9000 C   0  0  0  0  0  0  0  0  0  0  0  0
  -11.5180  -17.5939   12.4411 N   0  0  0  0  0  0  0  0  0  0  0  0
   -6.9450  -15.6826   12.3570 C   0  0  0  0  0  0  0  0  0  0  0  0
   -5.9387  -14.6817   12.4972 O   0  0  0  0  0  0  0  0  0  0  0  0
  1  2  1  0
  2  3  2  0
  2  4  1  0
  4  5  1  0
  4 12  1  0
  5  6  1  0
  6  7  2  0
  6  8  1  0
  8  9  1  0
  8 10  1  0
 10 11  1  0
 12 13  1  0
M  END
>  <Gold.Gold.Protein.RotatedWaterAtoms>  (365) 


>  <Gold.Id.Protein>  (365) 


>  <Gold.PLP.Chemscore.CHOScore>  (365) 
0.0000

>  <Gold.PLP.Chemscore.Hbond>  (365) 
4.0000

>  <Gold.PLP.Chemscore.Internal.Correction>  (365) 
0.0662

>  <Gold.PLP.Chemscore.Metal>  (365) 
0.0000

>  <Gold.PLP.Fitness>  (365) 
37.7627

>  <Gold.PLP.PLP>  (365) 
-26.2990

>  <Gold.PLP.ligand.clash>  (365) 
0.0000

>  <Gold.PLP.ligand.torsion>  (365) 
0.3012

>  <Gold.PLP.part.buried>  (365) 
-6.7761

>  <Gold.PLP.part.hbond>  (365) 
-5.0000

>  <Gold.PLP.part.metal>  (365) 
0.0000

>  <Gold.PLP.part.nonpolar>  (365) 
-14.4245

>  <Gold.PLP.part.repulsive>  (365) 
0.1509

>  <Gold.Protein.RotatedAtoms>  (365) 


>  <Gold.Protein.RotatedTorsions>  (365) 


>  <Gold.Protein.RotatedWaterAtoms>  (365) 


>  <Gold.Version>  (365) 
5.3.0

>  <PLP.Chemscore.CHOScore>  (365) 


>  <PLP.Chemscore.Hbond>  (365) 


>  <PLP.Chemscore.Internal.Correction>  (365) 


>  <PLP.Chemscore.Metal>  (365) 


>  <PLP.Fitness>  (365) 


>  <PLP.PLP>  (365) 


>  <PLP.ligand.clash>  (365) 


>  <PLP.ligand.torsion>  (365) 


>  <PLP.part.buried>  (365) 


>  <PLP.part.hbond>  (365) 


>  <PLP.part.metal>  (365) 


>  <PLP.part.nonpolar>  (365) 


>  <PLP.part.repulsive>  (365) 


>  <Version>  (365) 


$$$$
365|Compound_195|Compounds_3D_F|sdf|51|dock2|1
     RDKit          3D

 13 12  0  0  0  0  0  0  0  0999 V2000
  -11.7252  -17.8371   12.2748 O   0  0  0  0  0  0  0  0  0  0  0  0
  -10.8355  -18.7832   11.8994 C   0  0  0  0  0  0  0  0  0  0  0  0
  -10.9007  -19.9083   12.3700 O   0  0  0  0  0  0  0  0  0  0  0  0
   -9.8229  -18.2465   10.8980 C   0  0  0  0  0  0  0  0  0  0  0  0
   -9.3533  -16.9423   11.3401 N   0  0  0  0  0  0  0  0  0  0  0  0
   -8.0257  -16.6458   11.5513 C   0  0  0  0  0  0  0  0  0  0  0  0
   -7.1117  -17.4426   11.3585 O   0  0  0  0  0  0  0  0  0  0  0  0
   -7.8103  -15.2447   12.1307 C   0  0  0  0  0  0  0  0  0  0  0  0
   -9.1186  -14.5935   12.3980 N   0  0  0  0  0  0  0  0  0  0  0  0
   -6.9435  -14.3845   11.1963 C   0  0  0  0  0  0  0  0  0  0  0  0
   -5.6935  -15.0735   10.8487 N   0  0  0  0  0  0  0  0  0  0  0  0
  -10.4350  -18.1855    9.4993 C   0  0  0  0  0  0  0  0  0  0  0  0
  -11.5535  -17.3010    9.4765 O   0  0  0  0  0  0  0  0  0  0  0  0
  1  2  1  0
  2  3  2  0
  2  4  1  0
  4  5  1  0
  4 12  1  0
  5  6  1  0
  6  7  2  0
  6  8  1  0
  8  9  1  0
  8 10  1  0
 10 11  1  0
 12 13  1  0
M  END
>  <Gold.Gold.Protein.RotatedWaterAtoms>  (366) 


>  <Gold.Id.Protein>  (366) 


>  <Gold.PLP.Chemscore.CHOScore>  (366) 
0.0000

>  <Gold.PLP.Chemscore.Hbond>  (366) 
4.5731

>  <Gold.PLP.Chemscore.Internal.Correction>  (366) 
0.0662

>  <Gold.PLP.Chemscore.Metal>  (366) 
0.0000

>  <Gold.PLP.Fitness>  (366) 
37.2389

>  <Gold.PLP.PLP>  (366) 
-24.4883

>  <Gold.PLP.ligand.clash>  (366) 
0.0000

>  <Gold.PLP.ligand.torsion>  (366) 
0.5175

>  <Gold.PLP.part.buried>  (366) 
-5.6494

>  <Gold.PLP.part.hbond>  (366) 
-6.5028

>  <Gold.PLP.part.metal>  (366) 
0.0000

>  <Gold.PLP.part.nonpolar>  (366) 
-13.0219

>  <Gold.PLP.part.repulsive>  (366) 
0.0517

>  <Gold.Protein.RotatedAtoms>  (366) 


>  <Gold.Protein.RotatedTorsions>  (366) 


>  <Gold.Protein.RotatedWaterAtoms>  (366) 


>  <Gold.Version>  (366) 
5.3.0

>  <PLP.Chemscore.CHOScore>  (366) 


>  <PLP.Chemscore.Hbond>  (366) 


>  <PLP.Chemscore.Internal.Correction>  (366) 


>  <PLP.Chemscore.Metal>  (366) 


>  <PLP.Fitness>  (366) 


>  <PLP.PLP>  (366) 


>  <PLP.ligand.clash>  (366) 


>  <PLP.ligand.torsion>  (366) 


>  <PLP.part.buried>  (366) 


>  <PLP.part.hbond>  (366) 


>  <PLP.part.metal>  (366) 


>  <PLP.part.nonpolar>  (366) 


>  <PLP.part.repulsive>  (366) 


>  <Version>  (366) 


$$$$
366|Compound_195|Compounds_3D_F|sdf|51|dock3|1
     RDKit          3D

 13 12  0  0  0  0  0  0  0  0999 V2000
  -11.5255  -17.6871   12.3048 O   0  0  0  0  0  0  0  0  0  0  0  0
  -10.6374  -18.6264   11.9091 C   0  0  0  0  0  0  0  0  0  0  0  0
  -10.9479  -19.8075   11.9190 O   0  0  0  0  0  0  0  0  0  0  0  0
   -9.3036  -18.0143   11.5062 C   0  0  0  0  0  0  0  0  0  0  0  0
   -9.4095  -16.5636   11.5410 N   0  0  0  0  0  0  0  0  0  0  0  0
   -8.3429  -15.7312   11.7949 C   0  0  0  0  0  0  0  0  0  0  0  0
   -7.1981  -16.1314   11.9863 O   0  0  0  0  0  0  0  0  0  0  0  0
   -8.7452  -14.2570   11.8963 C   0  0  0  0  0  0  0  0  0  0  0  0
   -9.5766  -13.8707   10.7271 N   0  0  0  0  0  0  0  0  0  0  0  0
   -7.5090  -13.3512   12.0210 C   0  0  0  0  0  0  0  0  0  0  0  0
   -6.4941  -13.6978   11.0169 N   0  0  0  0  0  0  0  0  0  0  0  0
   -8.8778  -18.5198   10.1285 C   0  0  0  0  0  0  0  0  0  0  0  0
   -7.5740  -18.0456    9.7983 O   0  0  0  0  0  0  0  0  0  0  0  0
  1  2  1  0
  2  3  2  0
  2  4  1  0
  4  5  1  0
  4 12  1  0
  5  6  1  0
  6  7  2  0
  6  8  1  0
  8  9  1  0
  8 10  1  0
 10 11  1  0
 12 13  1  0
M  END
>  <Gold.Gold.Protein.RotatedWaterAtoms>  (367) 


>  <Gold.Id.Protein>  (367) 


>  <Gold.PLP.Chemscore.CHOScore>  (367) 
0.0000

>  <Gold.PLP.Chemscore.Hbond>  (367) 
3.3928

>  <Gold.PLP.Chemscore.Internal.Correction>  (367) 
0.0662

>  <Gold.PLP.Chemscore.Metal>  (367) 
0.0000

>  <Gold.PLP.Fitness>  (367) 
36.4360

>  <Gold.PLP.PLP>  (367) 
-27.6991

>  <Gold.PLP.ligand.clash>  (367) 
0.0000

>  <Gold.PLP.ligand.torsion>  (367) 
0.7538

>  <Gold.PLP.part.buried>  (367) 
-5.2808

>  <Gold.PLP.part.hbond>  (367) 
-6.0000

>  <Gold.PLP.part.metal>  (367) 
0.0000

>  <Gold.PLP.part.nonpolar>  (367) 
-15.8886

>  <Gold.PLP.part.repulsive>  (367) 
0.1339

>  <Gold.Protein.RotatedAtoms>  (367) 


>  <Gold.Protein.RotatedTorsions>  (367) 


>  <Gold.Protein.RotatedWaterAtoms>  (367) 


>  <Gold.Version>  (367) 
5.3.0

>  <PLP.Chemscore.CHOScore>  (367) 


>  <PLP.Chemscore.Hbond>  (367) 


>  <PLP.Chemscore.Internal.Correction>  (367) 


>  <PLP.Chemscore.Metal>  (367) 


>  <PLP.Fitness>  (367) 


>  <PLP.PLP>  (367) 


>  <PLP.ligand.clash>  (367) 


>  <PLP.ligand.torsion>  (367) 


>  <PLP.part.buried>  (367) 


>  <PLP.part.hbond>  (367) 


>  <PLP.part.metal>  (367) 


>  <PLP.part.nonpolar>  (367) 


>  <PLP.part.repulsive>  (367) 


>  <Version>  (367) 


$$$$
367|Compound_195|Compounds_3D_F|sdf|51|dock4|1
     RDKit          3D

 13 12  0  0  0  0  0  0  0  0999 V2000
   -6.6124  -17.8435   11.0162 O   0  0  0  0  0  0  0  0  0  0  0  0
   -5.3905  -18.0026   10.4601 C   0  0  0  0  0  0  0  0  0  0  0  0
   -5.2646  -18.6424    9.4275 O   0  0  0  0  0  0  0  0  0  0  0  0
   -4.3004  -17.3260   11.2789 C   0  0  0  0  0  0  0  0  0  0  0  0
   -4.5780  -15.9004   11.3653 N   0  0  0  0  0  0  0  0  0  0  0  0
   -5.4732  -15.3548   12.2575 C   0  0  0  0  0  0  0  0  0  0  0  0
   -6.0987  -16.0143   13.0828 O   0  0  0  0  0  0  0  0  0  0  0  0
   -5.6717  -13.8491   12.0608 C   0  0  0  0  0  0  0  0  0  0  0  0
   -5.0451  -13.0987   13.1796 N   0  0  0  0  0  0  0  0  0  0  0  0
   -7.1627  -13.4985   11.9246 C   0  0  0  0  0  0  0  0  0  0  0  0
   -7.3657  -12.0438   11.9041 N   0  0  0  0  0  0  0  0  0  0  0  0
   -2.9262  -17.6012   10.6703 C   0  0  0  0  0  0  0  0  0  0  0  0
   -2.4982  -16.4992    9.8727 O   0  0  0  0  0  0  0  0  0  0  0  0
  1  2  1  0
  2  3  2  0
  2  4  1  0
  4  5  1  0
  4 12  1  0
  5  6  1  0
  6  7  2  0
  6  8  1  0
  8  9  1  0
  8 10  1  0
 10 11  1  0
 12 13  1  0
M  END
>  <Gold.Gold.Protein.RotatedWaterAtoms>  (368) 


>  <Gold.Id.Protein>  (368) 


>  <Gold.PLP.Chemscore.CHOScore>  (368) 
0.0000

>  <Gold.PLP.Chemscore.Hbond>  (368) 
3.6240

>  <Gold.PLP.Chemscore.Internal.Correction>  (368) 
0.0662

>  <Gold.PLP.Chemscore.Metal>  (368) 
0.0000

>  <Gold.PLP.Fitness>  (368) 
36.8833

>  <Gold.PLP.PLP>  (368) 
-28.1746

>  <Gold.PLP.ligand.clash>  (368) 
0.0000

>  <Gold.PLP.ligand.torsion>  (368) 
1.1147

>  <Gold.PLP.part.buried>  (368) 
-7.3188

>  <Gold.PLP.part.hbond>  (368) 
-5.2779

>  <Gold.PLP.part.metal>  (368) 
0.0000

>  <Gold.PLP.part.nonpolar>  (368) 
-16.1409

>  <Gold.PLP.part.repulsive>  (368) 
0.1689

>  <Gold.Protein.RotatedAtoms>  (368) 


>  <Gold.Protein.RotatedTorsions>  (368) 


>  <Gold.Protein.RotatedWaterAtoms>  (368) 


>  <Gold.Version>  (368) 
5.3.0

>  <PLP.Chemscore.CHOScore>  (368) 


>  <PLP.Chemscore.Hbond>  (368) 


>  <PLP.Chemscore.Internal.Correction>  (368) 


>  <PLP.Chemscore.Metal>  (368) 


>  <PLP.Fitness>  (368) 


>  <PLP.PLP>  (368) 


>  <PLP.ligand.clash>  (368) 


>  <PLP.ligand.torsion>  (368) 


>  <PLP.part.buried>  (368) 


>  <PLP.part.hbond>  (368) 


>  <PLP.part.metal>  (368) 


>  <PLP.part.nonpolar>  (368) 


>  <PLP.part.repulsive>  (368) 


>  <Version>  (368) 


$$$$
368|Compound_195|Compounds_3D_F|sdf|51|dock5|1
     RDKit          3D

 13 12  0  0  0  0  0  0  0  0999 V2000
  -11.7071  -17.5726   12.4981 O   0  0  0  0  0  0  0  0  0  0  0  0
  -10.9913  -18.5295   11.8661 C   0  0  0  0  0  0  0  0  0  0  0  0
  -11.4540  -19.6511   11.7271 O   0  0  0  0  0  0  0  0  0  0  0  0
   -9.6295  -18.0185   11.4180 C   0  0  0  0  0  0  0  0  0  0  0  0
   -9.5797  -16.5736   11.5819 N   0  0  0  0  0  0  0  0  0  0  0  0
   -8.4470  -15.8237   11.3593 C   0  0  0  0  0  0  0  0  0  0  0  0
   -7.3821  -16.2979   10.9738 O   0  0  0  0  0  0  0  0  0  0  0  0
   -8.6266  -14.3465   11.7209 C   0  0  0  0  0  0  0  0  0  0  0  0
   -9.6741  -13.7326   10.8646 N   0  0  0  0  0  0  0  0  0  0  0  0
   -7.2980  -13.5810   11.6064 C   0  0  0  0  0  0  0  0  0  0  0  0
   -6.2609  -14.1894   12.4504 N   0  0  0  0  0  0  0  0  0  0  0  0
   -9.3499  -18.4365    9.9752 C   0  0  0  0  0  0  0  0  0  0  0  0
  -10.4698  -18.1480    9.1407 O   0  0  0  0  0  0  0  0  0  0  0  0
  1  2  1  0
  2  3  2  0
  2  4  1  0
  4  5  1  0
  4 12  1  0
  5  6  1  0
  6  7  2  0
  6  8  1  0
  8  9  1  0
  8 10  1  0
 10 11  1  0
 12 13  1  0
M  END
>  <Gold.Gold.Protein.RotatedWaterAtoms>  (369) 


>  <Gold.Id.Protein>  (369) 


>  <Gold.PLP.Chemscore.CHOScore>  (369) 
0.0000

>  <Gold.PLP.Chemscore.Hbond>  (369) 
3.5147

>  <Gold.PLP.Chemscore.Internal.Correction>  (369) 
0.0662

>  <Gold.PLP.Chemscore.Metal>  (369) 
0.0000

>  <Gold.PLP.Fitness>  (369) 
36.2354

>  <Gold.PLP.PLP>  (369) 
-26.3822

>  <Gold.PLP.ligand.clash>  (369) 
0.0000

>  <Gold.PLP.ligand.torsion>  (369) 
0.3785

>  <Gold.PLP.part.buried>  (369) 
-4.6497

>  <Gold.PLP.part.hbond>  (369) 
-6.0000

>  <Gold.PLP.part.metal>  (369) 
0.0000

>  <Gold.PLP.part.nonpolar>  (369) 
-14.9094

>  <Gold.PLP.part.repulsive>  (369) 
0.0998

>  <Gold.Protein.RotatedAtoms>  (369) 


>  <Gold.Protein.RotatedTorsions>  (369) 


>  <Gold.Protein.RotatedWaterAtoms>  (369) 


>  <Gold.Version>  (369) 
5.3.0

>  <PLP.Chemscore.CHOScore>  (369) 


>  <PLP.Chemscore.Hbond>  (369) 


>  <PLP.Chemscore.Internal.Correction>  (369) 


>  <PLP.Chemscore.Metal>  (369) 


>  <PLP.Fitness>  (369) 


>  <PLP.PLP>  (369) 


>  <PLP.ligand.clash>  (369) 


>  <PLP.ligand.torsion>  (369) 


>  <PLP.part.buried>  (369) 


>  <PLP.part.hbond>  (369) 


>  <PLP.part.metal>  (369) 


>  <PLP.part.nonpolar>  (369) 


>  <PLP.part.repulsive>  (369) 


>  <Version>  (369) 


$$$$
369|Compound_195|Compounds_3D_F|sdf|51|dock6|1
     RDKit          3D

 13 12  0  0  0  0  0  0  0  0999 V2000
   -5.7916  -14.9900    9.0125 O   0  0  0  0  0  0  0  0  0  0  0  0
   -5.8415  -16.1916    9.6300 C   0  0  0  0  0  0  0  0  0  0  0  0
   -6.1539  -17.1916    9.0025 O   0  0  0  0  0  0  0  0  0  0  0  0
   -5.4927  -16.0867   11.1077 C   0  0  0  0  0  0  0  0  0  0  0  0
   -5.2128  -14.6979   11.4389 N   0  0  0  0  0  0  0  0  0  0  0  0
   -6.1106  -13.8756   12.0814 C   0  0  0  0  0  0  0  0  0  0  0  0
   -7.2186  -14.2434   12.4614 O   0  0  0  0  0  0  0  0  0  0  0  0
   -5.6188  -12.4303   12.2011 C   0  0  0  0  0  0  0  0  0  0  0  0
   -4.6048  -12.3214   13.2816 N   0  0  0  0  0  0  0  0  0  0  0  0
   -6.7899  -11.4630   12.4405 C   0  0  0  0  0  0  0  0  0  0  0  0
   -6.3231  -10.0718   12.5095 N   0  0  0  0  0  0  0  0  0  0  0  0
   -4.3148  -16.9996   11.4450 C   0  0  0  0  0  0  0  0  0  0  0  0
   -3.1200  -16.5318   10.8226 O   0  0  0  0  0  0  0  0  0  0  0  0
  1  2  1  0
  2  3  2  0
  2  4  1  0
  4  5  1  0
  4 12  1  0
  5  6  1  0
  6  7  2  0
  6  8  1  0
  8  9  1  0
  8 10  1  0
 10 11  1  0
 12 13  1  0
M  END
>  <Gold.Gold.Protein.RotatedWaterAtoms>  (370) 


>  <Gold.Id.Protein>  (370) 


>  <Gold.PLP.Chemscore.CHOScore>  (370) 
0.0000

>  <Gold.PLP.Chemscore.Hbond>  (370) 
5.9040

>  <Gold.PLP.Chemscore.Internal.Correction>  (370) 
0.0620

>  <Gold.PLP.Chemscore.Metal>  (370) 
0.0000

>  <Gold.PLP.Fitness>  (370) 
47.6394

>  <Gold.PLP.PLP>  (370) 
-31.2725

>  <Gold.PLP.ligand.clash>  (370) 
0.0000

>  <Gold.PLP.ligand.torsion>  (370) 
0.7036

>  <Gold.PLP.part.buried>  (370) 
-6.1414

>  <Gold.PLP.part.hbond>  (370) 
-9.0000

>  <Gold.PLP.part.metal>  (370) 
0.0000

>  <Gold.PLP.part.nonpolar>  (370) 
-15.8918

>  <Gold.PLP.part.repulsive>  (370) 
0.2642

>  <Gold.Protein.RotatedAtoms>  (370) 


>  <Gold.Protein.RotatedTorsions>  (370) 


>  <Gold.Protein.RotatedWaterAtoms>  (370) 


>  <Gold.Version>  (370) 
5.3.0

>  <PLP.Chemscore.CHOScore>  (370) 


>  <PLP.Chemscore.Hbond>  (370) 


>  <PLP.Chemscore.Internal.Correction>  (370) 


>  <PLP.Chemscore.Metal>  (370) 


>  <PLP.Fitness>  (370) 


>  <PLP.PLP>  (370) 


>  <PLP.ligand.clash>  (370) 


>  <PLP.ligand.torsion>  (370) 


>  <PLP.part.buried>  (370) 


>  <PLP.part.hbond>  (370) 


>  <PLP.part.metal>  (370) 


>  <PLP.part.nonpolar>  (370) 


>  <PLP.part.repulsive>  (370) 


>  <Version>  (370) 


$$$$
370|Compound_195|Compounds_3D_F|sdf|51|dock7|1
     RDKit          3D

 13 12  0  0  0  0  0  0  0  0999 V2000
   -9.8483  -13.7642   10.3998 O   0  0  0  0  0  0  0  0  0  0  0  0
   -9.3879  -13.2074   11.5424 C   0  0  0  0  0  0  0  0  0  0  0  0
   -9.9650  -13.4093   12.5996 O   0  0  0  0  0  0  0  0  0  0  0  0
   -8.1535  -12.3505   11.3004 C   0  0  0  0  0  0  0  0  0  0  0  0
   -7.0054  -12.9664   11.9481 N   0  0  0  0  0  0  0  0  0  0  0  0
   -6.5559  -14.2330   11.6506 C   0  0  0  0  0  0  0  0  0  0  0  0
   -7.0616  -14.9500   10.7918 O   0  0  0  0  0  0  0  0  0  0  0  0
   -5.4102  -14.6900   12.5582 C   0  0  0  0  0  0  0  0  0  0  0  0
   -4.2945  -13.7101   12.5085 N   0  0  0  0  0  0  0  0  0  0  0  0
   -4.9277  -16.0992   12.1767 C   0  0  0  0  0  0  0  0  0  0  0  0
   -3.7471  -16.0377   11.3047 N   0  0  0  0  0  0  0  0  0  0  0  0
   -8.3876  -10.9241   11.7957 C   0  0  0  0  0  0  0  0  0  0  0  0
   -8.5277  -10.0256   10.6971 O   0  0  0  0  0  0  0  0  0  0  0  0
  1  2  1  0
  2  3  2  0
  2  4  1  0
  4  5  1  0
  4 12  1  0
  5  6  1  0
  6  7  2  0
  6  8  1  0
  8  9  1  0
  8 10  1  0
 10 11  1  0
 12 13  1  0
M  END
>  <Gold.Gold.Protein.RotatedWaterAtoms>  (371) 


>  <Gold.Id.Protein>  (371) 


>  <Gold.PLP.Chemscore.CHOScore>  (371) 
0.0000

>  <Gold.PLP.Chemscore.Hbond>  (371) 
5.0394

>  <Gold.PLP.Chemscore.Internal.Correction>  (371) 
0.0620

>  <Gold.PLP.Chemscore.Metal>  (371) 
0.0000

>  <Gold.PLP.Fitness>  (371) 
43.8086

>  <Gold.PLP.PLP>  (371) 
-31.1993

>  <Gold.PLP.ligand.clash>  (371) 
0.0000

>  <Gold.PLP.ligand.torsion>  (371) 
1.2855

>  <Gold.PLP.part.buried>  (371) 
-3.5603

>  <Gold.PLP.part.hbond>  (371) 
-8.6291

>  <Gold.PLP.part.metal>  (371) 
0.0000

>  <Gold.PLP.part.nonpolar>  (371) 
-18.5555

>  <Gold.PLP.part.repulsive>  (371) 
0.3467

>  <Gold.Protein.RotatedAtoms>  (371) 


>  <Gold.Protein.RotatedTorsions>  (371) 


>  <Gold.Protein.RotatedWaterAtoms>  (371) 


>  <Gold.Version>  (371) 
5.3.0

>  <PLP.Chemscore.CHOScore>  (371) 


>  <PLP.Chemscore.Hbond>  (371) 


>  <PLP.Chemscore.Internal.Correction>  (371) 


>  <PLP.Chemscore.Metal>  (371) 


>  <PLP.Fitness>  (371) 


>  <PLP.PLP>  (371) 


>  <PLP.ligand.clash>  (371) 


>  <PLP.ligand.torsion>  (371) 


>  <PLP.part.buried>  (371) 


>  <PLP.part.hbond>  (371) 


>  <PLP.part.metal>  (371) 


>  <PLP.part.nonpolar>  (371) 


>  <PLP.part.repulsive>  (371) 


>  <Version>  (371) 


$$$$
371|Compound_195|Compounds_3D_F|sdf|51|dock8|1
     RDKit          3D

 13 12  0  0  0  0  0  0  0  0999 V2000
  -11.5147  -17.6228   12.4951 O   0  0  0  0  0  0  0  0  0  0  0  0
  -10.7892  -18.5273   11.7999 C   0  0  0  0  0  0  0  0  0  0  0  0
  -10.9497  -19.7224   11.9936 O   0  0  0  0  0  0  0  0  0  0  0  0
   -9.8162  -17.8588   10.8394 C   0  0  0  0  0  0  0  0  0  0  0  0
   -9.7082  -16.4459   11.1693 N   0  0  0  0  0  0  0  0  0  0  0  0
   -8.5111  -15.7680   11.2190 C   0  0  0  0  0  0  0  0  0  0  0  0
   -7.4267  -16.2827   10.9614 O   0  0  0  0  0  0  0  0  0  0  0  0
   -8.6606  -14.3248   11.7091 C   0  0  0  0  0  0  0  0  0  0  0  0
   -9.7240  -13.6292   10.9393 N   0  0  0  0  0  0  0  0  0  0  0  0
   -7.3257  -13.5669   11.6198 C   0  0  0  0  0  0  0  0  0  0  0  0
   -6.3236  -14.1495   12.5223 N   0  0  0  0  0  0  0  0  0  0  0  0
  -10.2612  -18.0720    9.3933 C   0  0  0  0  0  0  0  0  0  0  0  0
   -9.8372  -19.3481    8.9183 O   0  0  0  0  0  0  0  0  0  0  0  0
  1  2  1  0
  2  3  2  0
  2  4  1  0
  4  5  1  0
  4 12  1  0
  5  6  1  0
  6  7  2  0
  6  8  1  0
  8  9  1  0
  8 10  1  0
 10 11  1  0
 12 13  1  0
M  END
>  <Gold.Gold.Protein.RotatedWaterAtoms>  (372) 


>  <Gold.Id.Protein>  (372) 


>  <Gold.PLP.Chemscore.CHOScore>  (372) 
0.0000

>  <Gold.PLP.Chemscore.Hbond>  (372) 
4.3840

>  <Gold.PLP.Chemscore.Internal.Correction>  (372) 
0.0620

>  <Gold.PLP.Chemscore.Metal>  (372) 
0.0000

>  <Gold.PLP.Fitness>  (372) 
37.6727

>  <Gold.PLP.PLP>  (372) 
-26.3462

>  <Gold.PLP.ligand.clash>  (372) 
0.0000

>  <Gold.PLP.ligand.torsion>  (372) 
0.9437

>  <Gold.PLP.part.buried>  (372) 
-6.1026

>  <Gold.PLP.part.hbond>  (372) 
-5.7489

>  <Gold.PLP.part.metal>  (372) 
0.0000

>  <Gold.PLP.part.nonpolar>  (372) 
-14.4759

>  <Gold.PLP.part.repulsive>  (372) 
0.0539

>  <Gold.Protein.RotatedAtoms>  (372) 


>  <Gold.Protein.RotatedTorsions>  (372) 


>  <Gold.Protein.RotatedWaterAtoms>  (372) 


>  <Gold.Version>  (372) 
5.3.0

>  <PLP.Chemscore.CHOScore>  (372) 


>  <PLP.Chemscore.Hbond>  (372) 


>  <PLP.Chemscore.Internal.Correction>  (372) 


>  <PLP.Chemscore.Metal>  (372) 


>  <PLP.Fitness>  (372) 


>  <PLP.PLP>  (372) 


>  <PLP.ligand.clash>  (372) 


>  <PLP.ligand.torsion>  (372) 


>  <PLP.part.buried>  (372) 


>  <PLP.part.hbond>  (372) 


>  <PLP.part.metal>  (372) 


>  <PLP.part.nonpolar>  (372) 


>  <PLP.part.repulsive>  (372) 


>  <Version>  (372) 


$$$$
372|Compound_195|Compounds_3D_F|sdf|51|dock9|1
     RDKit          3D

 13 12  0  0  0  0  0  0  0  0999 V2000
  -11.4988  -19.5933   11.4912 O   0  0  0  0  0  0  0  0  0  0  0  0
  -11.1657  -18.3261   11.8243 C   0  0  0  0  0  0  0  0  0  0  0  0
  -11.9257  -17.6489   12.4990 O   0  0  0  0  0  0  0  0  0  0  0  0
   -9.8154  -17.9231   11.2495 C   0  0  0  0  0  0  0  0  0  0  0  0
   -9.5147  -16.5544   11.6408 N   0  0  0  0  0  0  0  0  0  0  0  0
   -8.2453  -16.0220   11.6229 C   0  0  0  0  0  0  0  0  0  0  0  0
   -7.2534  -16.6406   11.2479 O   0  0  0  0  0  0  0  0  0  0  0  0
   -8.1832  -14.6036   12.1971 C   0  0  0  0  0  0  0  0  0  0  0  0
   -9.5401  -14.1548   12.6032 N   0  0  0  0  0  0  0  0  0  0  0  0
   -7.5531  -13.6249   11.1925 C   0  0  0  0  0  0  0  0  0  0  0  0
   -6.1754  -14.0151   10.8646 N   0  0  0  0  0  0  0  0  0  0  0  0
   -9.8081  -18.0944    9.7312 C   0  0  0  0  0  0  0  0  0  0  0  0
  -10.7093  -17.1763    9.1159 O   0  0  0  0  0  0  0  0  0  0  0  0
  1  2  1  0
  2  3  2  0
  2  4  1  0
  4  5  1  0
  4 12  1  0
  5  6  1  0
  6  7  2  0
  6  8  1  0
  8  9  1  0
  8 10  1  0
 10 11  1  0
 12 13  1  0
M  END
>  <Gold.Gold.Protein.RotatedWaterAtoms>  (373) 


>  <Gold.Id.Protein>  (373) 


>  <Gold.PLP.Chemscore.CHOScore>  (373) 
0.0000

>  <Gold.PLP.Chemscore.Hbond>  (373) 
4.4543

>  <Gold.PLP.Chemscore.Internal.Correction>  (373) 
0.0620

>  <Gold.PLP.Chemscore.Metal>  (373) 
0.0000

>  <Gold.PLP.Fitness>  (373) 
38.2857

>  <Gold.PLP.PLP>  (373) 
-25.4422

>  <Gold.PLP.ligand.clash>  (373) 
0.0000

>  <Gold.PLP.ligand.torsion>  (373) 
0.2907

>  <Gold.PLP.part.buried>  (373) 
-3.4178

>  <Gold.PLP.part.hbond>  (373) 
-7.6196

>  <Gold.PLP.part.metal>  (373) 
0.0000

>  <Gold.PLP.part.nonpolar>  (373) 
-13.7657

>  <Gold.PLP.part.repulsive>  (373) 
0.1659

>  <Gold.Protein.RotatedAtoms>  (373) 


>  <Gold.Protein.RotatedTorsions>  (373) 


>  <Gold.Protein.RotatedWaterAtoms>  (373) 


>  <Gold.Version>  (373) 
5.3.0

>  <PLP.Chemscore.CHOScore>  (373) 


>  <PLP.Chemscore.Hbond>  (373) 


>  <PLP.Chemscore.Internal.Correction>  (373) 


>  <PLP.Chemscore.Metal>  (373) 


>  <PLP.Fitness>  (373) 


>  <PLP.PLP>  (373) 


>  <PLP.ligand.clash>  (373) 


>  <PLP.ligand.torsion>  (373) 


>  <PLP.part.buried>  (373) 


>  <PLP.part.hbond>  (373) 


>  <PLP.part.metal>  (373) 


>  <PLP.part.nonpolar>  (373) 


>  <PLP.part.repulsive>  (373) 


>  <Version>  (373) 


$$$$
373|Compound_200|Compounds_3D_F|sdf|52|dock1|1
     RDKit          3D

 13 12  0  0  0  0  0  0  0  0999 V2000
   -8.6283  -15.5564   12.2846 O   0  0  0  0  0  0  0  0  0  0  0  0
   -8.1652  -14.4804   11.1868 P   0  0  0  0  0  0  0  0  0  0  0  0
   -7.5897  -15.0726    9.9426 O   0  0  0  0  0  0  0  0  0  0  0  0
   -9.5469  -13.6962   10.9406 O   0  0  0  0  0  0  0  0  0  0  0  0
   -7.1193  -13.3211   12.0549 C   0  0  0  0  0  0  0  0  0  0  0  0
   -5.7981  -13.9328   12.4913 C   0  0  0  0  0  0  0  0  0  0  0  0
   -5.2285  -14.8196   11.4882 N   0  0  0  0  0  0  0  0  0  0  0  0
   -5.0928  -16.1756   11.7359 C   0  0  0  0  0  0  0  0  0  0  0  0
   -5.4004  -16.7026   12.8042 O   0  0  0  0  0  0  0  0  0  0  0  0
   -4.5329  -16.9955   10.5590 C   0  0  0  0  0  0  0  0  0  0  0  0
   -3.0908  -16.6839   10.3883 N   0  0  0  0  0  0  0  0  0  0  0  0
   -5.3121  -16.6636    9.2730 C   0  0  0  0  0  0  0  0  0  0  0  0
   -5.2711  -15.2261    8.9597 N   0  0  0  0  0  0  0  0  0  0  0  0
  1  2  1  0
  2  3  2  0
  2  4  1  0
  2  5  1  0
  5  6  1  0
  6  7  1  0
  7  8  1  0
  8  9  2  0
  8 10  1  0
 10 11  1  0
 10 12  1  0
 12 13  1  0
M  END
>  <Gold.Gold.Protein.RotatedWaterAtoms>  (374) 


>  <Gold.Id.Protein>  (374) 


>  <Gold.PLP.Chemscore.CHOScore>  (374) 
0.0000

>  <Gold.PLP.Chemscore.Hbond>  (374) 
4.2600

>  <Gold.PLP.Chemscore.Internal.Correction>  (374) 
0.1413

>  <Gold.PLP.Chemscore.Metal>  (374) 
0.0000

>  <Gold.PLP.Fitness>  (374) 
41.2564

>  <Gold.PLP.PLP>  (374) 
-29.0896

>  <Gold.PLP.ligand.clash>  (374) 
0.0000

>  <Gold.PLP.ligand.torsion>  (374) 
0.3773

>  <Gold.PLP.part.buried>  (374) 
-7.7656

>  <Gold.PLP.part.hbond>  (374) 
-7.5382

>  <Gold.PLP.part.metal>  (374) 
0.0000

>  <Gold.PLP.part.nonpolar>  (374) 
-14.8503

>  <Gold.PLP.part.repulsive>  (374) 
0.2371

>  <Gold.Protein.RotatedAtoms>  (374) 


>  <Gold.Protein.RotatedTorsions>  (374) 


>  <Gold.Protein.RotatedWaterAtoms>  (374) 


>  <Gold.Version>  (374) 
5.3.0

>  <PLP.Chemscore.CHOScore>  (374) 


>  <PLP.Chemscore.Hbond>  (374) 


>  <PLP.Chemscore.Internal.Correction>  (374) 


>  <PLP.Chemscore.Metal>  (374) 


>  <PLP.Fitness>  (374) 


>  <PLP.PLP>  (374) 


>  <PLP.ligand.clash>  (374) 


>  <PLP.ligand.torsion>  (374) 


>  <PLP.part.buried>  (374) 


>  <PLP.part.hbond>  (374) 


>  <PLP.part.metal>  (374) 


>  <PLP.part.nonpolar>  (374) 


>  <PLP.part.repulsive>  (374) 


>  <Version>  (374) 


$$$$
374|Compound_200|Compounds_3D_F|sdf|52|dock2|1
     RDKit          3D

 13 12  0  0  0  0  0  0  0  0999 V2000
  -11.7411  -17.7324   12.2952 O   0  0  0  0  0  0  0  0  0  0  0  0
  -10.8551  -18.4515   11.1658 P   0  0  0  0  0  0  0  0  0  0  0  0
  -11.2008  -19.8842   10.9256 O   0  0  0  0  0  0  0  0  0  0  0  0
  -11.1572  -17.5018    9.9042 O   0  0  0  0  0  0  0  0  0  0  0  0
   -9.1540  -18.1219   11.6009 C   0  0  0  0  0  0  0  0  0  0  0  0
   -8.7693  -16.6641   11.4092 C   0  0  0  0  0  0  0  0  0  0  0  0
   -7.4480  -16.3556   11.9346 N   0  0  0  0  0  0  0  0  0  0  0  0
   -6.9165  -15.0824   11.8136 C   0  0  0  0  0  0  0  0  0  0  0  0
   -7.4922  -14.1607   11.2367 O   0  0  0  0  0  0  0  0  0  0  0  0
   -5.5380  -14.8913   12.4722 C   0  0  0  0  0  0  0  0  0  0  0  0
   -4.9030  -13.6631   11.9299 N   0  0  0  0  0  0  0  0  0  0  0  0
   -4.6529  -16.1215   12.1991 C   0  0  0  0  0  0  0  0  0  0  0  0
   -3.5336  -15.8053   11.2973 N   0  0  0  0  0  0  0  0  0  0  0  0
  1  2  1  0
  2  3  2  0
  2  4  1  0
  2  5  1  0
  5  6  1  0
  6  7  1  0
  7  8  1  0
  8  9  2  0
  8 10  1  0
 10 11  1  0
 10 12  1  0
 12 13  1  0
M  END
>  <Gold.Gold.Protein.RotatedWaterAtoms>  (375) 


>  <Gold.Id.Protein>  (375) 


>  <Gold.PLP.Chemscore.CHOScore>  (375) 
0.0000

>  <Gold.PLP.Chemscore.Hbond>  (375) 
5.3840

>  <Gold.PLP.Chemscore.Internal.Correction>  (375) 
0.1413

>  <Gold.PLP.Chemscore.Metal>  (375) 
0.0000

>  <Gold.PLP.Fitness>  (375) 
42.5481

>  <Gold.PLP.PLP>  (375) 
-29.3796

>  <Gold.PLP.ligand.clash>  (375) 
0.0000

>  <Gold.PLP.ligand.torsion>  (375) 
1.5624

>  <Gold.PLP.part.buried>  (375) 
-6.2500

>  <Gold.PLP.part.hbond>  (375) 
-7.7804

>  <Gold.PLP.part.metal>  (375) 
0.0000

>  <Gold.PLP.part.nonpolar>  (375) 
-16.1128

>  <Gold.PLP.part.repulsive>  (375) 
0.1627

>  <Gold.Protein.RotatedAtoms>  (375) 


>  <Gold.Protein.RotatedTorsions>  (375) 


>  <Gold.Protein.RotatedWaterAtoms>  (375) 


>  <Gold.Version>  (375) 
5.3.0

>  <PLP.Chemscore.CHOScore>  (375) 


>  <PLP.Chemscore.Hbond>  (375) 


>  <PLP.Chemscore.Internal.Correction>  (375) 


>  <PLP.Chemscore.Metal>  (375) 


>  <PLP.Fitness>  (375) 


>  <PLP.PLP>  (375) 


>  <PLP.ligand.clash>  (375) 


>  <PLP.ligand.torsion>  (375) 


>  <PLP.part.buried>  (375) 


>  <PLP.part.hbond>  (375) 


>  <PLP.part.metal>  (375) 


>  <PLP.part.nonpolar>  (375) 


>  <PLP.part.repulsive>  (375) 


>  <Version>  (375) 


$$$$
375|Compound_200|Compounds_3D_F|sdf|52|dock3|1
     RDKit          3D

 13 12  0  0  0  0  0  0  0  0999 V2000
  -11.0961  -19.6789   11.9645 O   0  0  0  0  0  0  0  0  0  0  0  0
  -10.7551  -18.3177   11.1845 P   0  0  0  0  0  0  0  0  0  0  0  0
  -11.7890  -17.8957   10.1930 O   0  0  0  0  0  0  0  0  0  0  0  0
  -10.6021  -17.2999   12.4196 O   0  0  0  0  0  0  0  0  0  0  0  0
   -9.1003  -18.5268   10.5447 C   0  0  0  0  0  0  0  0  0  0  0  0
   -8.0313  -18.0286   11.5034 C   0  0  0  0  0  0  0  0  0  0  0  0
   -7.9506  -16.5767   11.5533 N   0  0  0  0  0  0  0  0  0  0  0  0
   -6.9019  -15.9469   12.2029 C   0  0  0  0  0  0  0  0  0  0  0  0
   -6.0121  -16.5536   12.7977 O   0  0  0  0  0  0  0  0  0  0  0  0
   -6.9180  -14.4096   12.1180 C   0  0  0  0  0  0  0  0  0  0  0  0
   -7.0916  -13.9999   10.7011 N   0  0  0  0  0  0  0  0  0  0  0  0
   -5.6050  -13.8407   12.6869 C   0  0  0  0  0  0  0  0  0  0  0  0
   -4.4258  -14.5504   12.1653 N   0  0  0  0  0  0  0  0  0  0  0  0
  1  2  1  0
  2  3  2  0
  2  4  1  0
  2  5  1  0
  5  6  1  0
  6  7  1  0
  7  8  1  0
  8  9  2  0
  8 10  1  0
 10 11  1  0
 10 12  1  0
 12 13  1  0
M  END
>  <Gold.Gold.Protein.RotatedWaterAtoms>  (376) 


>  <Gold.Id.Protein>  (376) 


>  <Gold.PLP.Chemscore.CHOScore>  (376) 
0.0000

>  <Gold.PLP.Chemscore.Hbond>  (376) 
3.7920

>  <Gold.PLP.Chemscore.Internal.Correction>  (376) 
0.1413

>  <Gold.PLP.Chemscore.Metal>  (376) 
0.0000

>  <Gold.PLP.Fitness>  (376) 
34.7190

>  <Gold.PLP.PLP>  (376) 
-24.7434

>  <Gold.PLP.ligand.clash>  (376) 
0.0000

>  <Gold.PLP.ligand.torsion>  (376) 
0.7709

>  <Gold.PLP.part.buried>  (376) 
-4.8063

>  <Gold.PLP.part.hbond>  (376) 
-5.7119

>  <Gold.PLP.part.metal>  (376) 
0.0000

>  <Gold.PLP.part.nonpolar>  (376) 
-15.8299

>  <Gold.PLP.part.repulsive>  (376) 
0.0886

>  <Gold.Protein.RotatedAtoms>  (376) 


>  <Gold.Protein.RotatedTorsions>  (376) 


>  <Gold.Protein.RotatedWaterAtoms>  (376) 


>  <Gold.Version>  (376) 
5.3.0

>  <PLP.Chemscore.CHOScore>  (376) 


>  <PLP.Chemscore.Hbond>  (376) 


>  <PLP.Chemscore.Internal.Correction>  (376) 


>  <PLP.Chemscore.Metal>  (376) 


>  <PLP.Fitness>  (376) 


>  <PLP.PLP>  (376) 


>  <PLP.ligand.clash>  (376) 


>  <PLP.ligand.torsion>  (376) 


>  <PLP.part.buried>  (376) 


>  <PLP.part.hbond>  (376) 


>  <PLP.part.metal>  (376) 


>  <PLP.part.nonpolar>  (376) 


>  <PLP.part.repulsive>  (376) 


>  <Version>  (376) 


$$$$
376|Compound_200|Compounds_3D_F|sdf|52|dock4|1
     RDKit          3D

 13 12  0  0  0  0  0  0  0  0999 V2000
   -4.8759  -17.0751    9.5974 O   0  0  0  0  0  0  0  0  0  0  0  0
   -3.4627  -17.4943   10.2338 P   0  0  0  0  0  0  0  0  0  0  0  0
   -3.0494  -18.9016    9.9531 O   0  0  0  0  0  0  0  0  0  0  0  0
   -2.4984  -16.3991    9.5590 O   0  0  0  0  0  0  0  0  0  0  0  0
   -3.5527  -17.0371   11.9584 C   0  0  0  0  0  0  0  0  0  0  0  0
   -4.8486  -16.3262   12.3121 C   0  0  0  0  0  0  0  0  0  0  0  0
   -4.7454  -14.8788   12.2051 N   0  0  0  0  0  0  0  0  0  0  0  0
   -5.8735  -14.0796   12.2890 C   0  0  0  0  0  0  0  0  0  0  0  0
   -7.0121  -14.5273   12.4180 O   0  0  0  0  0  0  0  0  0  0  0  0
   -5.6005  -12.5657   12.2215 C   0  0  0  0  0  0  0  0  0  0  0  0
   -4.5958  -12.2036   13.2535 N   0  0  0  0  0  0  0  0  0  0  0  0
   -6.9099  -11.7876   12.4472 C   0  0  0  0  0  0  0  0  0  0  0  0
   -8.0064  -12.3000   11.6096 N   0  0  0  0  0  0  0  0  0  0  0  0
  1  2  1  0
  2  3  2  0
  2  4  1  0
  2  5  1  0
  5  6  1  0
  6  7  1  0
  7  8  1  0
  8  9  2  0
  8 10  1  0
 10 11  1  0
 10 12  1  0
 12 13  1  0
M  END
>  <Gold.Gold.Protein.RotatedWaterAtoms>  (377) 


>  <Gold.Id.Protein>  (377) 


>  <Gold.PLP.Chemscore.CHOScore>  (377) 
0.0000

>  <Gold.PLP.Chemscore.Hbond>  (377) 
4.8070

>  <Gold.PLP.Chemscore.Internal.Correction>  (377) 
0.1413

>  <Gold.PLP.Chemscore.Metal>  (377) 
0.0000

>  <Gold.PLP.Fitness>  (377) 
47.2124

>  <Gold.PLP.PLP>  (377) 
-33.7637

>  <Gold.PLP.ligand.clash>  (377) 
0.0000

>  <Gold.PLP.ligand.torsion>  (377) 
0.5568

>  <Gold.PLP.part.buried>  (377) 
-8.2835

>  <Gold.PLP.part.hbond>  (377) 
-6.7420

>  <Gold.PLP.part.metal>  (377) 
0.0000

>  <Gold.PLP.part.nonpolar>  (377) 
-19.0335

>  <Gold.PLP.part.repulsive>  (377) 
0.2229

>  <Gold.Protein.RotatedAtoms>  (377) 


>  <Gold.Protein.RotatedTorsions>  (377) 


>  <Gold.Protein.RotatedWaterAtoms>  (377) 


>  <Gold.Version>  (377) 
5.3.0

>  <PLP.Chemscore.CHOScore>  (377) 


>  <PLP.Chemscore.Hbond>  (377) 


>  <PLP.Chemscore.Internal.Correction>  (377) 


>  <PLP.Chemscore.Metal>  (377) 


>  <PLP.Fitness>  (377) 


>  <PLP.PLP>  (377) 


>  <PLP.ligand.clash>  (377) 


>  <PLP.ligand.torsion>  (377) 


>  <PLP.part.buried>  (377) 


>  <PLP.part.hbond>  (377) 


>  <PLP.part.metal>  (377) 


>  <PLP.part.nonpolar>  (377) 


>  <PLP.part.repulsive>  (377) 


>  <Version>  (377) 


$$$$
377|Compound_200|Compounds_3D_F|sdf|52|dock5|1
     RDKit          3D

 13 12  0  0  0  0  0  0  0  0999 V2000
  -11.2793  -17.8327    9.9452 O   0  0  0  0  0  0  0  0  0  0  0  0
  -10.8884  -18.2261   11.4518 P   0  0  0  0  0  0  0  0  0  0  0  0
  -11.7524  -17.6040   12.4990 O   0  0  0  0  0  0  0  0  0  0  0  0
  -11.0209  -19.8268   11.3831 O   0  0  0  0  0  0  0  0  0  0  0  0
   -9.1362  -17.9089   11.5969 C   0  0  0  0  0  0  0  0  0  0  0  0
   -8.8072  -16.4254   11.6280 C   0  0  0  0  0  0  0  0  0  0  0  0
   -7.4284  -16.1613   12.0101 N   0  0  0  0  0  0  0  0  0  0  0  0
   -6.9389  -14.8661   12.0480 C   0  0  0  0  0  0  0  0  0  0  0  0
   -7.6057  -13.8812   11.7337 O   0  0  0  0  0  0  0  0  0  0  0  0
   -5.4823  -14.7387   12.5305 C   0  0  0  0  0  0  0  0  0  0  0  0
   -4.8886  -13.4979   11.9705 N   0  0  0  0  0  0  0  0  0  0  0  0
   -4.6743  -15.9717   12.0855 C   0  0  0  0  0  0  0  0  0  0  0  0
   -4.6078  -16.0868   10.6197 N   0  0  0  0  0  0  0  0  0  0  0  0
  1  2  1  0
  2  3  2  0
  2  4  1  0
  2  5  1  0
  5  6  1  0
  6  7  1  0
  7  8  1  0
  8  9  2  0
  8 10  1  0
 10 11  1  0
 10 12  1  0
 12 13  1  0
M  END
>  <Gold.Gold.Protein.RotatedWaterAtoms>  (378) 


>  <Gold.Id.Protein>  (378) 


>  <Gold.PLP.Chemscore.CHOScore>  (378) 
0.0000

>  <Gold.PLP.Chemscore.Hbond>  (378) 
3.6160

>  <Gold.PLP.Chemscore.Internal.Correction>  (378) 
0.1413

>  <Gold.PLP.Chemscore.Metal>  (378) 
0.0000

>  <Gold.PLP.Fitness>  (378) 
38.5977

>  <Gold.PLP.PLP>  (378) 
-29.2821

>  <Gold.PLP.ligand.clash>  (378) 
0.0000

>  <Gold.PLP.ligand.torsion>  (378) 
0.8368

>  <Gold.PLP.part.buried>  (378) 
-5.1465

>  <Gold.PLP.part.hbond>  (378) 
-6.3093

>  <Gold.PLP.part.metal>  (378) 
0.0000

>  <Gold.PLP.part.nonpolar>  (378) 
-16.9577

>  <Gold.PLP.part.repulsive>  (378) 
0.2095

>  <Gold.Protein.RotatedAtoms>  (378) 


>  <Gold.Protein.RotatedTorsions>  (378) 


>  <Gold.Protein.RotatedWaterAtoms>  (378) 


>  <Gold.Version>  (378) 
5.3.0

>  <PLP.Chemscore.CHOScore>  (378) 


>  <PLP.Chemscore.Hbond>  (378) 


>  <PLP.Chemscore.Internal.Correction>  (378) 


>  <PLP.Chemscore.Metal>  (378) 


>  <PLP.Fitness>  (378) 


>  <PLP.PLP>  (378) 


>  <PLP.ligand.clash>  (378) 


>  <PLP.ligand.torsion>  (378) 


>  <PLP.part.buried>  (378) 


>  <PLP.part.hbond>  (378) 


>  <PLP.part.metal>  (378) 


>  <PLP.part.nonpolar>  (378) 


>  <PLP.part.repulsive>  (378) 


>  <Version>  (378) 


$$$$
378|Compound_200|Compounds_3D_F|sdf|52|dock6|1
     RDKit          3D

 13 12  0  0  0  0  0  0  0  0999 V2000
   -9.9365  -19.7321   10.3934 O   0  0  0  0  0  0  0  0  0  0  0  0
  -10.1514  -18.2078   10.8493 P   0  0  0  0  0  0  0  0  0  0  0  0
  -10.8508  -17.3529    9.8442 O   0  0  0  0  0  0  0  0  0  0  0  0
  -10.9927  -18.4200   12.2027 O   0  0  0  0  0  0  0  0  0  0  0  0
   -8.5473  -17.6302   11.3829 C   0  0  0  0  0  0  0  0  0  0  0  0
   -8.5777  -16.2003   11.8972 C   0  0  0  0  0  0  0  0  0  0  0  0
   -7.3114  -15.5077   11.7134 N   0  0  0  0  0  0  0  0  0  0  0  0
   -7.1921  -14.1591   12.0055 C   0  0  0  0  0  0  0  0  0  0  0  0
   -8.1310  -13.4650   12.3932 O   0  0  0  0  0  0  0  0  0  0  0  0
   -5.7775  -13.5797   11.8212 C   0  0  0  0  0  0  0  0  0  0  0  0
   -4.7749  -14.6094   12.1958 N   0  0  0  0  0  0  0  0  0  0  0  0
   -5.6100  -12.3216   12.6932 C   0  0  0  0  0  0  0  0  0  0  0  0
   -4.2030  -11.9000   12.7871 N   0  0  0  0  0  0  0  0  0  0  0  0
  1  2  1  0
  2  3  2  0
  2  4  1  0
  2  5  1  0
  5  6  1  0
  6  7  1  0
  7  8  1  0
  8  9  2  0
  8 10  1  0
 10 11  1  0
 10 12  1  0
 12 13  1  0
M  END
>  <Gold.Gold.Protein.RotatedWaterAtoms>  (379) 


>  <Gold.Id.Protein>  (379) 


>  <Gold.PLP.Chemscore.CHOScore>  (379) 
0.0000

>  <Gold.PLP.Chemscore.Hbond>  (379) 
4.3731

>  <Gold.PLP.Chemscore.Internal.Correction>  (379) 
0.1340

>  <Gold.PLP.Chemscore.Metal>  (379) 
0.0000

>  <Gold.PLP.Fitness>  (379) 
41.2752

>  <Gold.PLP.PLP>  (379) 
-30.0983

>  <Gold.PLP.ligand.clash>  (379) 
0.0000

>  <Gold.PLP.ligand.torsion>  (379) 
1.0382

>  <Gold.PLP.part.buried>  (379) 
-6.8339

>  <Gold.PLP.part.hbond>  (379) 
-5.9156

>  <Gold.PLP.part.metal>  (379) 
0.0000

>  <Gold.PLP.part.nonpolar>  (379) 
-17.8463

>  <Gold.PLP.part.repulsive>  (379) 
0.1825

>  <Gold.Protein.RotatedAtoms>  (379) 


>  <Gold.Protein.RotatedTorsions>  (379) 


>  <Gold.Protein.RotatedWaterAtoms>  (379) 


>  <Gold.Version>  (379) 
5.3.0

>  <PLP.Chemscore.CHOScore>  (379) 


>  <PLP.Chemscore.Hbond>  (379) 


>  <PLP.Chemscore.Internal.Correction>  (379) 


>  <PLP.Chemscore.Metal>  (379) 


>  <PLP.Fitness>  (379) 


>  <PLP.PLP>  (379) 


>  <PLP.ligand.clash>  (379) 


>  <PLP.ligand.torsion>  (379) 


>  <PLP.part.buried>  (379) 


>  <PLP.part.hbond>  (379) 


>  <PLP.part.metal>  (379) 


>  <PLP.part.nonpolar>  (379) 


>  <PLP.part.repulsive>  (379) 


>  <Version>  (379) 


$$$$
379|Compound_200|Compounds_3D_F|sdf|52|dock7|1
     RDKit          3D

 13 12  0  0  0  0  0  0  0  0999 V2000
  -11.1232  -17.9158    9.7186 O   0  0  0  0  0  0  0  0  0  0  0  0
  -10.4818  -18.1166   11.1766 P   0  0  0  0  0  0  0  0  0  0  0  0
  -11.3268  -17.6134   12.3003 O   0  0  0  0  0  0  0  0  0  0  0  0
  -10.2806  -19.7115   11.1937 O   0  0  0  0  0  0  0  0  0  0  0  0
   -8.8315  -17.4394   11.0780 C   0  0  0  0  0  0  0  0  0  0  0  0
   -8.6559  -16.1910   11.9268 C   0  0  0  0  0  0  0  0  0  0  0  0
   -7.4433  -15.4549   11.6034 N   0  0  0  0  0  0  0  0  0  0  0  0
   -7.2359  -14.1779   12.0981 C   0  0  0  0  0  0  0  0  0  0  0  0
   -8.0557  -13.5803   12.7940 O   0  0  0  0  0  0  0  0  0  0  0  0
   -5.8809  -13.5505   11.7224 C   0  0  0  0  0  0  0  0  0  0  0  0
   -4.7907  -14.4973   12.0698 N   0  0  0  0  0  0  0  0  0  0  0  0
   -5.6964  -12.2175   12.4708 C   0  0  0  0  0  0  0  0  0  0  0  0
   -4.5660  -12.2664   13.4121 N   0  0  0  0  0  0  0  0  0  0  0  0
  1  2  1  0
  2  3  2  0
  2  4  1  0
  2  5  1  0
  5  6  1  0
  6  7  1  0
  7  8  1  0
  8  9  2  0
  8 10  1  0
 10 11  1  0
 10 12  1  0
 12 13  1  0
M  END
>  <Gold.Gold.Protein.RotatedWaterAtoms>  (380) 


>  <Gold.Id.Protein>  (380) 


>  <Gold.PLP.Chemscore.CHOScore>  (380) 
0.0000

>  <Gold.PLP.Chemscore.Hbond>  (380) 
4.7042

>  <Gold.PLP.Chemscore.Internal.Correction>  (380) 
0.1340

>  <Gold.PLP.Chemscore.Metal>  (380) 
0.0000

>  <Gold.PLP.Fitness>  (380) 
43.3769

>  <Gold.PLP.PLP>  (380) 
-31.5836

>  <Gold.PLP.ligand.clash>  (380) 
0.0000

>  <Gold.PLP.ligand.torsion>  (380) 
1.2266

>  <Gold.PLP.part.buried>  (380) 
-6.4850

>  <Gold.PLP.part.hbond>  (380) 
-8.0000

>  <Gold.PLP.part.metal>  (380) 
0.0000

>  <Gold.PLP.part.nonpolar>  (380) 
-17.2643

>  <Gold.PLP.part.repulsive>  (380) 
0.2189

>  <Gold.Protein.RotatedAtoms>  (380) 


>  <Gold.Protein.RotatedTorsions>  (380) 


>  <Gold.Protein.RotatedWaterAtoms>  (380) 


>  <Gold.Version>  (380) 
5.3.0

>  <PLP.Chemscore.CHOScore>  (380) 


>  <PLP.Chemscore.Hbond>  (380) 


>  <PLP.Chemscore.Internal.Correction>  (380) 


>  <PLP.Chemscore.Metal>  (380) 


>  <PLP.Fitness>  (380) 


>  <PLP.PLP>  (380) 


>  <PLP.ligand.clash>  (380) 


>  <PLP.ligand.torsion>  (380) 


>  <PLP.part.buried>  (380) 


>  <PLP.part.hbond>  (380) 


>  <PLP.part.metal>  (380) 


>  <PLP.part.nonpolar>  (380) 


>  <PLP.part.repulsive>  (380) 


>  <Version>  (380) 


$$$$
380|Compound_200|Compounds_3D_F|sdf|52|dock8|1
     RDKit          3D

 13 12  0  0  0  0  0  0  0  0999 V2000
  -11.5343  -17.4730   12.4983 O   0  0  0  0  0  0  0  0  0  0  0  0
  -11.6529  -18.7126   11.4848 P   0  0  0  0  0  0  0  0  0  0  0  0
  -12.5965  -19.7837   11.9233 O   0  0  0  0  0  0  0  0  0  0  0  0
  -12.1234  -17.9560   10.1466 O   0  0  0  0  0  0  0  0  0  0  0  0
   -9.9759  -19.2357   11.1598 C   0  0  0  0  0  0  0  0  0  0  0  0
   -9.1702  -18.1924   10.4032 C   0  0  0  0  0  0  0  0  0  0  0  0
   -9.1404  -16.9039   11.0785 N   0  0  0  0  0  0  0  0  0  0  0  0
   -7.9517  -16.3864   11.5658 C   0  0  0  0  0  0  0  0  0  0  0  0
   -6.8764  -16.9801   11.4972 O   0  0  0  0  0  0  0  0  0  0  0  0
   -8.0664  -14.9876   12.1992 C   0  0  0  0  0  0  0  0  0  0  0  0
   -9.4981  -14.6782   12.4450 N   0  0  0  0  0  0  0  0  0  0  0  0
   -7.4406  -13.9370   11.2634 C   0  0  0  0  0  0  0  0  0  0  0  0
   -6.0261  -14.2266   10.9780 N   0  0  0  0  0  0  0  0  0  0  0  0
  1  2  1  0
  2  3  2  0
  2  4  1  0
  2  5  1  0
  5  6  1  0
  6  7  1  0
  7  8  1  0
  8  9  2  0
  8 10  1  0
 10 11  1  0
 10 12  1  0
 12 13  1  0
M  END
>  <Gold.Gold.Protein.RotatedWaterAtoms>  (381) 


>  <Gold.Id.Protein>  (381) 


>  <Gold.PLP.Chemscore.CHOScore>  (381) 
0.0000

>  <Gold.PLP.Chemscore.Hbond>  (381) 
4.6500

>  <Gold.PLP.Chemscore.Internal.Correction>  (381) 
0.1340

>  <Gold.PLP.Chemscore.Metal>  (381) 
0.0000

>  <Gold.PLP.Fitness>  (381) 
38.2675

>  <Gold.PLP.PLP>  (381) 
-25.3372

>  <Gold.PLP.ligand.clash>  (381) 
0.0000

>  <Gold.PLP.ligand.torsion>  (381) 
0.5768

>  <Gold.PLP.part.buried>  (381) 
-5.4493

>  <Gold.PLP.part.hbond>  (381) 
-7.2758

>  <Gold.PLP.part.metal>  (381) 
0.0000

>  <Gold.PLP.part.nonpolar>  (381) 
-12.6192

>  <Gold.PLP.part.repulsive>  (381) 
0.0811

>  <Gold.Protein.RotatedAtoms>  (381) 


>  <Gold.Protein.RotatedTorsions>  (381) 


>  <Gold.Protein.RotatedWaterAtoms>  (381) 


>  <Gold.Version>  (381) 
5.3.0

>  <PLP.Chemscore.CHOScore>  (381) 


>  <PLP.Chemscore.Hbond>  (381) 


>  <PLP.Chemscore.Internal.Correction>  (381) 


>  <PLP.Chemscore.Metal>  (381) 


>  <PLP.Fitness>  (381) 


>  <PLP.PLP>  (381) 


>  <PLP.ligand.clash>  (381) 


>  <PLP.ligand.torsion>  (381) 


>  <PLP.part.buried>  (381) 


>  <PLP.part.hbond>  (381) 


>  <PLP.part.metal>  (381) 


>  <PLP.part.nonpolar>  (381) 


>  <PLP.part.repulsive>  (381) 


>  <Version>  (381) 


$$$$
381|Compound_200|Compounds_3D_F|sdf|52|dock9|1
     RDKit          3D

 13 12  0  0  0  0  0  0  0  0999 V2000
  -11.8268  -17.4849   12.5016 O   0  0  0  0  0  0  0  0  0  0  0  0
  -12.3051  -18.9007   11.9150 P   0  0  0  0  0  0  0  0  0  0  0  0
  -11.8089  -20.0864   12.6753 O   0  0  0  0  0  0  0  0  0  0  0  0
  -13.9017  -18.7233   11.9800 O   0  0  0  0  0  0  0  0  0  0  0  0
  -11.9025  -18.8658   10.1748 C   0  0  0  0  0  0  0  0  0  0  0  0
  -10.4519  -18.4950    9.9137 C   0  0  0  0  0  0  0  0  0  0  0  0
  -10.0394  -17.2950   10.6256 N   0  0  0  0  0  0  0  0  0  0  0  0
   -8.7469  -17.1648   11.1062 C   0  0  0  0  0  0  0  0  0  0  0  0
   -7.8937  -18.0449   11.0006 O   0  0  0  0  0  0  0  0  0  0  0  0
   -8.4407  -15.8157   11.7821 C   0  0  0  0  0  0  0  0  0  0  0  0
   -9.5894  -15.4263   12.6391 N   0  0  0  0  0  0  0  0  0  0  0  0
   -8.1789  -14.7414   10.7104 C   0  0  0  0  0  0  0  0  0  0  0  0
   -9.4027  -14.0019   10.3615 N   0  0  0  0  0  0  0  0  0  0  0  0
  1  2  1  0
  2  3  2  0
  2  4  1  0
  2  5  1  0
  5  6  1  0
  6  7  1  0
  7  8  1  0
  8  9  2  0
  8 10  1  0
 10 11  1  0
 10 12  1  0
 12 13  1  0
M  END
>  <Gold.Gold.Protein.RotatedWaterAtoms>  (382) 


>  <Gold.Id.Protein>  (382) 


>  <Gold.PLP.Chemscore.CHOScore>  (382) 
0.0000

>  <Gold.PLP.Chemscore.Hbond>  (382) 
6.0624

>  <Gold.PLP.Chemscore.Internal.Correction>  (382) 
0.1340

>  <Gold.PLP.Chemscore.Metal>  (382) 
0.0000

>  <Gold.PLP.Fitness>  (382) 
39.6806

>  <Gold.PLP.PLP>  (382) 
-24.2247

>  <Gold.PLP.ligand.clash>  (382) 
0.0000

>  <Gold.PLP.ligand.torsion>  (382) 
1.4326

>  <Gold.PLP.part.buried>  (382) 
-3.0901

>  <Gold.PLP.part.hbond>  (382) 
-7.7941

>  <Gold.PLP.part.metal>  (382) 
0.0000

>  <Gold.PLP.part.nonpolar>  (382) 
-11.7890

>  <Gold.PLP.part.repulsive>  (382) 
0.0410

>  <Gold.Protein.RotatedAtoms>  (382) 


>  <Gold.Protein.RotatedTorsions>  (382) 


>  <Gold.Protein.RotatedWaterAtoms>  (382) 


>  <Gold.Version>  (382) 
5.3.0

>  <PLP.Chemscore.CHOScore>  (382) 


>  <PLP.Chemscore.Hbond>  (382) 


>  <PLP.Chemscore.Internal.Correction>  (382) 


>  <PLP.Chemscore.Metal>  (382) 


>  <PLP.Fitness>  (382) 


>  <PLP.PLP>  (382) 


>  <PLP.ligand.clash>  (382) 


>  <PLP.ligand.torsion>  (382) 


>  <PLP.part.buried>  (382) 


>  <PLP.part.hbond>  (382) 


>  <PLP.part.metal>  (382) 


>  <PLP.part.nonpolar>  (382) 


>  <PLP.part.repulsive>  (382) 


>  <Version>  (382) 


$$$$
382|Compound_201|Compounds_3D_F|sdf|53|dock1|1
     RDKit          3D

 12 11  0  0  0  0  0  0  0  0999 V2000
   -3.9393  -16.6810    9.4183 O   0  0  0  0  0  0  0  0  0  0  0  0
   -3.2571  -17.6450   10.5139 P   0  0  0  0  0  0  0  0  0  0  0  0
   -3.7297  -19.0615   10.4530 O   0  0  0  0  0  0  0  0  0  0  0  0
   -1.7047  -17.4722   10.1290 O   0  0  0  0  0  0  0  0  0  0  0  0
   -3.4336  -16.7829   12.0756 C   0  0  0  0  0  0  0  0  0  0  0  0
   -4.2721  -15.6153   11.8994 N   0  0  0  0  0  0  0  0  0  0  0  0
   -5.5845  -15.5679   12.3260 C   0  0  0  0  0  0  0  0  0  0  0  0
   -6.1404  -16.4662   12.9494 O   0  0  0  0  0  0  0  0  0  0  0  0
   -6.2969  -14.2900   11.8699 C   0  0  0  0  0  0  0  0  0  0  0  0
   -6.1552  -14.1322   10.3969 N   0  0  0  0  0  0  0  0  0  0  0  0
   -5.7734  -13.0546   12.6190 C   0  0  0  0  0  0  0  0  0  0  0  0
   -4.4054  -12.7222   12.1972 N   0  0  0  0  0  0  0  0  0  0  0  0
  1  2  1  0
  2  3  2  0
  2  4  1  0
  2  5  1  0
  5  6  1  0
  6  7  1  0
  7  8  2  0
  7  9  1  0
  9 10  1  0
  9 11  1  0
 11 12  1  0
M  END
>  <Gold.Gold.Protein.RotatedWaterAtoms>  (383) 


>  <Gold.Id.Protein>  (383) 


>  <Gold.PLP.Chemscore.CHOScore>  (383) 
0.0000

>  <Gold.PLP.Chemscore.Hbond>  (383) 
5.2173

>  <Gold.PLP.Chemscore.Internal.Correction>  (383) 
0.1418

>  <Gold.PLP.Chemscore.Metal>  (383) 
0.0000

>  <Gold.PLP.Fitness>  (383) 
41.7604

>  <Gold.PLP.PLP>  (383) 
-26.5812

>  <Gold.PLP.ligand.clash>  (383) 
0.0000

>  <Gold.PLP.ligand.torsion>  (383) 
0.3072

>  <Gold.PLP.part.buried>  (383) 
-1.9757

>  <Gold.PLP.part.hbond>  (383) 
-8.2868

>  <Gold.PLP.part.metal>  (383) 
0.0000

>  <Gold.PLP.part.nonpolar>  (383) 
-15.8753

>  <Gold.PLP.part.repulsive>  (383) 
0.1676

>  <Gold.Protein.RotatedAtoms>  (383) 


>  <Gold.Protein.RotatedTorsions>  (383) 


>  <Gold.Protein.RotatedWaterAtoms>  (383) 


>  <Gold.Version>  (383) 
5.3.0

>  <PLP.Chemscore.CHOScore>  (383) 


>  <PLP.Chemscore.Hbond>  (383) 


>  <PLP.Chemscore.Internal.Correction>  (383) 


>  <PLP.Chemscore.Metal>  (383) 


>  <PLP.Fitness>  (383) 


>  <PLP.PLP>  (383) 


>  <PLP.ligand.clash>  (383) 


>  <PLP.ligand.torsion>  (383) 


>  <PLP.part.buried>  (383) 


>  <PLP.part.hbond>  (383) 


>  <PLP.part.metal>  (383) 


>  <PLP.part.nonpolar>  (383) 


>  <PLP.part.repulsive>  (383) 


>  <Version>  (383) 


$$$$
383|Compound_201|Compounds_3D_F|sdf|53|dock2|1
     RDKit          3D

 12 11  0  0  0  0  0  0  0  0999 V2000
  -11.7325  -17.9087    9.9673 O   0  0  0  0  0  0  0  0  0  0  0  0
  -10.8050  -18.5057   11.1414 P   0  0  0  0  0  0  0  0  0  0  0  0
  -11.4540  -18.5019   12.4875 O   0  0  0  0  0  0  0  0  0  0  0  0
  -10.5263  -19.9836   10.5705 O   0  0  0  0  0  0  0  0  0  0  0  0
   -9.2350  -17.6558   10.9800 C   0  0  0  0  0  0  0  0  0  0  0  0
   -9.4004  -16.2540   11.3037 N   0  0  0  0  0  0  0  0  0  0  0  0
   -8.3768  -15.3348   11.1842 C   0  0  0  0  0  0  0  0  0  0  0  0
   -7.2662  -15.5935   10.7324 O   0  0  0  0  0  0  0  0  0  0  0  0
   -8.7607  -13.9626   11.7482 C   0  0  0  0  0  0  0  0  0  0  0  0
   -9.9238  -13.4164   10.9974 N   0  0  0  0  0  0  0  0  0  0  0  0
   -7.5711  -12.9901   11.7241 C   0  0  0  0  0  0  0  0  0  0  0  0
   -6.4546  -13.5019   12.5311 N   0  0  0  0  0  0  0  0  0  0  0  0
  1  2  1  0
  2  3  2  0
  2  4  1  0
  2  5  1  0
  5  6  1  0
  6  7  1  0
  7  8  2  0
  7  9  1  0
  9 10  1  0
  9 11  1  0
 11 12  1  0
M  END
>  <Gold.Gold.Protein.RotatedWaterAtoms>  (384) 


>  <Gold.Id.Protein>  (384) 


>  <Gold.PLP.Chemscore.CHOScore>  (384) 
0.0000

>  <Gold.PLP.Chemscore.Hbond>  (384) 
3.9920

>  <Gold.PLP.Chemscore.Internal.Correction>  (384) 
0.1388

>  <Gold.PLP.Chemscore.Metal>  (384) 
0.0000

>  <Gold.PLP.Fitness>  (384) 
36.6992

>  <Gold.PLP.PLP>  (384) 
-24.7516

>  <Gold.PLP.ligand.clash>  (384) 
0.0000

>  <Gold.PLP.ligand.torsion>  (384) 
0.0836

>  <Gold.PLP.part.buried>  (384) 
-5.8458

>  <Gold.PLP.part.hbond>  (384) 
-5.0000

>  <Gold.PLP.part.metal>  (384) 
0.0000

>  <Gold.PLP.part.nonpolar>  (384) 
-13.2390

>  <Gold.PLP.part.repulsive>  (384) 
0.1107

>  <Gold.Protein.RotatedAtoms>  (384) 


>  <Gold.Protein.RotatedTorsions>  (384) 


>  <Gold.Protein.RotatedWaterAtoms>  (384) 


>  <Gold.Version>  (384) 
5.3.0

>  <PLP.Chemscore.CHOScore>  (384) 


>  <PLP.Chemscore.Hbond>  (384) 


>  <PLP.Chemscore.Internal.Correction>  (384) 


>  <PLP.Chemscore.Metal>  (384) 


>  <PLP.Fitness>  (384) 


>  <PLP.PLP>  (384) 


>  <PLP.ligand.clash>  (384) 


>  <PLP.ligand.torsion>  (384) 


>  <PLP.part.buried>  (384) 


>  <PLP.part.hbond>  (384) 


>  <PLP.part.metal>  (384) 


>  <PLP.part.nonpolar>  (384) 


>  <PLP.part.repulsive>  (384) 


>  <Version>  (384) 


$$$$
384|Compound_201|Compounds_3D_F|sdf|53|dock3|1
     RDKit          3D

 12 11  0  0  0  0  0  0  0  0999 V2000
   -2.4702  -16.5137    9.5965 O   0  0  0  0  0  0  0  0  0  0  0  0
   -3.7892  -17.2396   10.1694 P   0  0  0  0  0  0  0  0  0  0  0  0
   -4.9995  -17.0632    9.3107 O   0  0  0  0  0  0  0  0  0  0  0  0
   -3.2754  -18.7622   10.2446 O   0  0  0  0  0  0  0  0  0  0  0  0
   -3.9086  -16.7184   11.8804 C   0  0  0  0  0  0  0  0  0  0  0  0
   -4.3019  -15.3261   11.9429 N   0  0  0  0  0  0  0  0  0  0  0  0
   -5.5326  -14.9190   12.4189 C   0  0  0  0  0  0  0  0  0  0  0  0
   -6.3730  -15.6752   12.8946 O   0  0  0  0  0  0  0  0  0  0  0  0
   -5.7632  -13.4170   12.2208 C   0  0  0  0  0  0  0  0  0  0  0  0
   -4.8542  -12.6456   13.1115 N   0  0  0  0  0  0  0  0  0  0  0  0
   -7.2336  -13.0365   12.4552 C   0  0  0  0  0  0  0  0  0  0  0  0
   -7.5300  -11.7085   11.8998 N   0  0  0  0  0  0  0  0  0  0  0  0
  1  2  1  0
  2  3  2  0
  2  4  1  0
  2  5  1  0
  5  6  1  0
  6  7  1  0
  7  8  2  0
  7  9  1  0
  9 10  1  0
  9 11  1  0
 11 12  1  0
M  END
>  <Gold.Gold.Protein.RotatedWaterAtoms>  (385) 


>  <Gold.Id.Protein>  (385) 


>  <Gold.PLP.Chemscore.CHOScore>  (385) 
0.0000

>  <Gold.PLP.Chemscore.Hbond>  (385) 
3.6160

>  <Gold.PLP.Chemscore.Internal.Correction>  (385) 
0.1388

>  <Gold.PLP.Chemscore.Metal>  (385) 
0.0000

>  <Gold.PLP.Fitness>  (385) 
39.0346

>  <Gold.PLP.PLP>  (385) 
-28.8342

>  <Gold.PLP.ligand.clash>  (385) 
0.0000

>  <Gold.PLP.ligand.torsion>  (385) 
0.3932

>  <Gold.PLP.part.buried>  (385) 
-7.0429

>  <Gold.PLP.part.hbond>  (385) 
-6.5156

>  <Gold.PLP.part.metal>  (385) 
0.0000

>  <Gold.PLP.part.nonpolar>  (385) 
-15.8204

>  <Gold.PLP.part.repulsive>  (385) 
0.3198

>  <Gold.Protein.RotatedAtoms>  (385) 


>  <Gold.Protein.RotatedTorsions>  (385) 


>  <Gold.Protein.RotatedWaterAtoms>  (385) 


>  <Gold.Version>  (385) 
5.3.0

>  <PLP.Chemscore.CHOScore>  (385) 


>  <PLP.Chemscore.Hbond>  (385) 


>  <PLP.Chemscore.Internal.Correction>  (385) 


>  <PLP.Chemscore.Metal>  (385) 


>  <PLP.Fitness>  (385) 


>  <PLP.PLP>  (385) 


>  <PLP.ligand.clash>  (385) 


>  <PLP.ligand.torsion>  (385) 


>  <PLP.part.buried>  (385) 


>  <PLP.part.hbond>  (385) 


>  <PLP.part.metal>  (385) 


>  <PLP.part.nonpolar>  (385) 


>  <PLP.part.repulsive>  (385) 


>  <Version>  (385) 


$$$$
385|Compound_201|Compounds_3D_F|sdf|53|dock4|1
     RDKit          3D

 12 11  0  0  0  0  0  0  0  0999 V2000
   -4.5243  -18.4925   10.2671 O   0  0  0  0  0  0  0  0  0  0  0  0
   -3.6677  -17.1566   10.5440 P   0  0  0  0  0  0  0  0  0  0  0  0
   -2.2092  -17.3003   10.2516 O   0  0  0  0  0  0  0  0  0  0  0  0
   -4.4165  -16.1215    9.5664 O   0  0  0  0  0  0  0  0  0  0  0  0
   -4.1305  -16.6338   12.1950 C   0  0  0  0  0  0  0  0  0  0  0  0
   -4.4062  -15.2121   12.2002 N   0  0  0  0  0  0  0  0  0  0  0  0
   -5.6724  -14.6983   12.3989 C   0  0  0  0  0  0  0  0  0  0  0  0
   -6.6602  -15.3779   12.6574 O   0  0  0  0  0  0  0  0  0  0  0  0
   -5.7222  -13.1810   12.1890 C   0  0  0  0  0  0  0  0  0  0  0  0
   -4.8006  -12.5094   13.1451 N   0  0  0  0  0  0  0  0  0  0  0  0
   -7.1550  -12.6407   12.3179 C   0  0  0  0  0  0  0  0  0  0  0  0
   -8.0661  -13.3364   11.3982 N   0  0  0  0  0  0  0  0  0  0  0  0
  1  2  1  0
  2  3  2  0
  2  4  1  0
  2  5  1  0
  5  6  1  0
  6  7  1  0
  7  8  2  0
  7  9  1  0
  9 10  1  0
  9 11  1  0
 11 12  1  0
M  END
>  <Gold.Gold.Protein.RotatedWaterAtoms>  (386) 


>  <Gold.Id.Protein>  (386) 


>  <Gold.PLP.Chemscore.CHOScore>  (386) 
0.0000

>  <Gold.PLP.Chemscore.Hbond>  (386) 
4.9520

>  <Gold.PLP.Chemscore.Internal.Correction>  (386) 
0.1388

>  <Gold.PLP.Chemscore.Metal>  (386) 
0.0000

>  <Gold.PLP.Fitness>  (386) 
44.0881

>  <Gold.PLP.PLP>  (386) 
-30.0270

>  <Gold.PLP.ligand.clash>  (386) 
0.0000

>  <Gold.PLP.ligand.torsion>  (386) 
0.4668

>  <Gold.PLP.part.buried>  (386) 
-7.6975

>  <Gold.PLP.part.hbond>  (386) 
-6.7839

>  <Gold.PLP.part.metal>  (386) 
0.0000

>  <Gold.PLP.part.nonpolar>  (386) 
-16.8384

>  <Gold.PLP.part.repulsive>  (386) 
0.3385

>  <Gold.Protein.RotatedAtoms>  (386) 


>  <Gold.Protein.RotatedTorsions>  (386) 


>  <Gold.Protein.RotatedWaterAtoms>  (386) 


>  <Gold.Version>  (386) 
5.3.0

>  <PLP.Chemscore.CHOScore>  (386) 


>  <PLP.Chemscore.Hbond>  (386) 


>  <PLP.Chemscore.Internal.Correction>  (386) 


>  <PLP.Chemscore.Metal>  (386) 


>  <PLP.Fitness>  (386) 


>  <PLP.PLP>  (386) 


>  <PLP.ligand.clash>  (386) 


>  <PLP.ligand.torsion>  (386) 


>  <PLP.part.buried>  (386) 


>  <PLP.part.hbond>  (386) 


>  <PLP.part.metal>  (386) 


>  <PLP.part.nonpolar>  (386) 


>  <PLP.part.repulsive>  (386) 


>  <Version>  (386) 


$$$$
386|Compound_201|Compounds_3D_F|sdf|53|dock5|1
     RDKit          3D

 12 11  0  0  0  0  0  0  0  0999 V2000
   -5.1180  -16.0464    9.4599 O   0  0  0  0  0  0  0  0  0  0  0  0
   -4.2328  -16.9984   10.4114 P   0  0  0  0  0  0  0  0  0  0  0  0
   -4.3519  -18.4535   10.0924 O   0  0  0  0  0  0  0  0  0  0  0  0
   -2.7643  -16.4019   10.1365 O   0  0  0  0  0  0  0  0  0  0  0  0
   -4.6223  -16.4860   12.0844 C   0  0  0  0  0  0  0  0  0  0  0  0
   -4.6096  -15.0405   12.1704 N   0  0  0  0  0  0  0  0  0  0  0  0
   -5.7614  -14.2909   12.3063 C   0  0  0  0  0  0  0  0  0  0  0  0
   -6.8837  -14.7679   12.4376 O   0  0  0  0  0  0  0  0  0  0  0  0
   -5.4898  -12.7862   12.2028 C   0  0  0  0  0  0  0  0  0  0  0  0
   -4.6060  -12.3555   13.3200 N   0  0  0  0  0  0  0  0  0  0  0  0
   -6.7964  -11.9778   12.1779 C   0  0  0  0  0  0  0  0  0  0  0  0
   -6.5352  -10.5615   11.8849 N   0  0  0  0  0  0  0  0  0  0  0  0
  1  2  1  0
  2  3  2  0
  2  4  1  0
  2  5  1  0
  5  6  1  0
  6  7  1  0
  7  8  2  0
  7  9  1  0
  9 10  1  0
  9 11  1  0
 11 12  1  0
M  END
>  <Gold.Gold.Protein.RotatedWaterAtoms>  (387) 


>  <Gold.Id.Protein>  (387) 


>  <Gold.PLP.Chemscore.CHOScore>  (387) 
0.0000

>  <Gold.PLP.Chemscore.Hbond>  (387) 
3.8364

>  <Gold.PLP.Chemscore.Internal.Correction>  (387) 
0.1388

>  <Gold.PLP.Chemscore.Metal>  (387) 
0.0000

>  <Gold.PLP.Fitness>  (387) 
43.9975

>  <Gold.PLP.PLP>  (387) 
-32.8375

>  <Gold.PLP.ligand.clash>  (387) 
0.0000

>  <Gold.PLP.ligand.torsion>  (387) 
0.2440

>  <Gold.PLP.part.buried>  (387) 
-7.7983

>  <Gold.PLP.part.hbond>  (387) 
-8.6250

>  <Gold.PLP.part.metal>  (387) 
0.0000

>  <Gold.PLP.part.nonpolar>  (387) 
-16.3128

>  <Gold.PLP.part.repulsive>  (387) 
0.2425

>  <Gold.Protein.RotatedAtoms>  (387) 


>  <Gold.Protein.RotatedTorsions>  (387) 


>  <Gold.Protein.RotatedWaterAtoms>  (387) 


>  <Gold.Version>  (387) 
5.3.0

>  <PLP.Chemscore.CHOScore>  (387) 


>  <PLP.Chemscore.Hbond>  (387) 


>  <PLP.Chemscore.Internal.Correction>  (387) 


>  <PLP.Chemscore.Metal>  (387) 


>  <PLP.Fitness>  (387) 


>  <PLP.PLP>  (387) 


>  <PLP.ligand.clash>  (387) 


>  <PLP.ligand.torsion>  (387) 


>  <PLP.part.buried>  (387) 


>  <PLP.part.hbond>  (387) 


>  <PLP.part.metal>  (387) 


>  <PLP.part.nonpolar>  (387) 


>  <PLP.part.repulsive>  (387) 


>  <Version>  (387) 


$$$$
387|Compound_201|Compounds_3D_F|sdf|53|dock6|1
     RDKit          3D

 12 11  0  0  0  0  0  0  0  0999 V2000
  -10.3906  -16.5606   12.3216 O   0  0  0  0  0  0  0  0  0  0  0  0
  -10.5215  -18.0510   11.7246 P   0  0  0  0  0  0  0  0  0  0  0  0
  -11.2271  -19.0071   12.6309 O   0  0  0  0  0  0  0  0  0  0  0  0
  -11.3237  -17.7509   10.3629 O   0  0  0  0  0  0  0  0  0  0  0  0
   -8.8688  -18.4905   11.1875 C   0  0  0  0  0  0  0  0  0  0  0  0
   -7.9550  -17.4037   11.4723 N   0  0  0  0  0  0  0  0  0  0  0  0
   -6.9434  -17.0335   10.6084 C   0  0  0  0  0  0  0  0  0  0  0  0
   -6.7646  -17.5308    9.5016 O   0  0  0  0  0  0  0  0  0  0  0  0
   -6.0184  -15.9746   11.2182 C   0  0  0  0  0  0  0  0  0  0  0  0
   -5.7623  -14.8967   10.2245 N   0  0  0  0  0  0  0  0  0  0  0  0
   -4.7063  -16.5952   11.7229 C   0  0  0  0  0  0  0  0  0  0  0  0
   -3.5492  -15.7849   11.3175 N   0  0  0  0  0  0  0  0  0  0  0  0
  1  2  1  0
  2  3  2  0
  2  4  1  0
  2  5  1  0
  5  6  1  0
  6  7  1  0
  7  8  2  0
  7  9  1  0
  9 10  1  0
  9 11  1  0
 11 12  1  0
M  END
>  <Gold.Gold.Protein.RotatedWaterAtoms>  (388) 


>  <Gold.Id.Protein>  (388) 


>  <Gold.PLP.Chemscore.CHOScore>  (388) 
0.0000

>  <Gold.PLP.Chemscore.Hbond>  (388) 
5.4190

>  <Gold.PLP.Chemscore.Internal.Correction>  (388) 
0.1388

>  <Gold.PLP.Chemscore.Metal>  (388) 
0.0000

>  <Gold.PLP.Fitness>  (388) 
35.4452

>  <Gold.PLP.PLP>  (388) 
-21.6243

>  <Gold.PLP.ligand.clash>  (388) 
0.0000

>  <Gold.PLP.ligand.torsion>  (388) 
1.2875

>  <Gold.PLP.part.buried>  (388) 
-4.5891

>  <Gold.PLP.part.hbond>  (388) 
-7.2878

>  <Gold.PLP.part.metal>  (388) 
0.0000

>  <Gold.PLP.part.nonpolar>  (388) 
-10.0685

>  <Gold.PLP.part.repulsive>  (388) 
0.0554

>  <Gold.Protein.RotatedAtoms>  (388) 


>  <Gold.Protein.RotatedTorsions>  (388) 


>  <Gold.Protein.RotatedWaterAtoms>  (388) 


>  <Gold.Version>  (388) 
5.3.0

>  <PLP.Chemscore.CHOScore>  (388) 


>  <PLP.Chemscore.Hbond>  (388) 


>  <PLP.Chemscore.Internal.Correction>  (388) 


>  <PLP.Chemscore.Metal>  (388) 


>  <PLP.Fitness>  (388) 


>  <PLP.PLP>  (388) 


>  <PLP.ligand.clash>  (388) 


>  <PLP.ligand.torsion>  (388) 


>  <PLP.part.buried>  (388) 


>  <PLP.part.hbond>  (388) 


>  <PLP.part.metal>  (388) 


>  <PLP.part.nonpolar>  (388) 


>  <PLP.part.repulsive>  (388) 


>  <Version>  (388) 


$$$$
388|Compound_201|Compounds_3D_F|sdf|53|dock7|1
     RDKit          3D

 12 11  0  0  0  0  0  0  0  0999 V2000
  -11.2660  -17.5460   12.2686 O   0  0  0  0  0  0  0  0  0  0  0  0
  -10.3185  -18.1867   11.1343 P   0  0  0  0  0  0  0  0  0  0  0  0
  -10.3010  -19.6810   11.1322 O   0  0  0  0  0  0  0  0  0  0  0  0
  -10.9780  -17.5534    9.8107 O   0  0  0  0  0  0  0  0  0  0  0  0
   -8.7455  -17.3436   11.3026 C   0  0  0  0  0  0  0  0  0  0  0  0
   -8.9675  -15.9276   11.5098 N   0  0  0  0  0  0  0  0  0  0  0  0
   -7.9397  -15.0399   11.7600 C   0  0  0  0  0  0  0  0  0  0  0  0
   -6.7512  -15.3428   11.7608 O   0  0  0  0  0  0  0  0  0  0  0  0
   -8.4550  -13.6395   12.1093 C   0  0  0  0  0  0  0  0  0  0  0  0
   -9.5731  -13.2721   11.1985 N   0  0  0  0  0  0  0  0  0  0  0  0
   -7.3278  -12.5961   12.0625 C   0  0  0  0  0  0  0  0  0  0  0  0
   -6.2255  -12.9694   12.9600 N   0  0  0  0  0  0  0  0  0  0  0  0
  1  2  1  0
  2  3  2  0
  2  4  1  0
  2  5  1  0
  5  6  1  0
  6  7  1  0
  7  8  2  0
  7  9  1  0
  9 10  1  0
  9 11  1  0
 11 12  1  0
M  END
>  <Gold.Gold.Protein.RotatedWaterAtoms>  (389) 


>  <Gold.Id.Protein>  (389) 


>  <Gold.PLP.Chemscore.CHOScore>  (389) 
0.0000

>  <Gold.PLP.Chemscore.Hbond>  (389) 
4.0282

>  <Gold.PLP.Chemscore.Internal.Correction>  (389) 
0.1355

>  <Gold.PLP.Chemscore.Metal>  (389) 
0.0000

>  <Gold.PLP.Fitness>  (389) 
37.2648

>  <Gold.PLP.PLP>  (389) 
-26.2778

>  <Gold.PLP.ligand.clash>  (389) 
0.0000

>  <Gold.PLP.ligand.torsion>  (389) 
0.6164

>  <Gold.PLP.part.buried>  (389) 
-7.3929

>  <Gold.PLP.part.hbond>  (389) 
-6.6990

>  <Gold.PLP.part.metal>  (389) 
0.0000

>  <Gold.PLP.part.nonpolar>  (389) 
-13.8407

>  <Gold.PLP.part.repulsive>  (389) 
0.1162

>  <Gold.Protein.RotatedAtoms>  (389) 


>  <Gold.Protein.RotatedTorsions>  (389) 


>  <Gold.Protein.RotatedWaterAtoms>  (389) 


>  <Gold.Version>  (389) 
5.3.0

>  <PLP.Chemscore.CHOScore>  (389) 


>  <PLP.Chemscore.Hbond>  (389) 


>  <PLP.Chemscore.Internal.Correction>  (389) 


>  <PLP.Chemscore.Metal>  (389) 


>  <PLP.Fitness>  (389) 


>  <PLP.PLP>  (389) 


>  <PLP.ligand.clash>  (389) 


>  <PLP.ligand.torsion>  (389) 


>  <PLP.part.buried>  (389) 


>  <PLP.part.hbond>  (389) 


>  <PLP.part.metal>  (389) 


>  <PLP.part.nonpolar>  (389) 


>  <PLP.part.repulsive>  (389) 


>  <Version>  (389) 


$$$$
389|Compound_201|Compounds_3D_F|sdf|53|dock8|1
     RDKit          3D

 12 11  0  0  0  0  0  0  0  0999 V2000
   -7.0310  -16.9389   10.0497 O   0  0  0  0  0  0  0  0  0  0  0  0
   -5.5063  -16.4269    9.9580 P   0  0  0  0  0  0  0  0  0  0  0  0
   -4.6529  -17.2280    9.0288 O   0  0  0  0  0  0  0  0  0  0  0  0
   -5.7358  -14.9117    9.4688 O   0  0  0  0  0  0  0  0  0  0  0  0
   -4.9573  -16.2744   11.6576 C   0  0  0  0  0  0  0  0  0  0  0  0
   -4.7619  -14.8777   11.9866 N   0  0  0  0  0  0  0  0  0  0  0  0
   -5.8010  -14.0445   12.3512 C   0  0  0  0  0  0  0  0  0  0  0  0
   -6.9614  -14.4131   12.5001 O   0  0  0  0  0  0  0  0  0  0  0  0
   -5.3552  -12.5840   12.4810 C   0  0  0  0  0  0  0  0  0  0  0  0
   -4.5188  -12.4189   13.7008 N   0  0  0  0  0  0  0  0  0  0  0  0
   -6.5571  -11.6264   12.4916 C   0  0  0  0  0  0  0  0  0  0  0  0
   -6.1150  -10.2250   12.5110 N   0  0  0  0  0  0  0  0  0  0  0  0
  1  2  1  0
  2  3  2  0
  2  4  1  0
  2  5  1  0
  5  6  1  0
  6  7  1  0
  7  8  2  0
  7  9  1  0
  9 10  1  0
  9 11  1  0
 11 12  1  0
M  END
>  <Gold.Gold.Protein.RotatedWaterAtoms>  (390) 


>  <Gold.Id.Protein>  (390) 


>  <Gold.PLP.Chemscore.CHOScore>  (390) 
0.0000

>  <Gold.PLP.Chemscore.Hbond>  (390) 
4.8055

>  <Gold.PLP.Chemscore.Internal.Correction>  (390) 
0.1355

>  <Gold.PLP.Chemscore.Metal>  (390) 
0.0000

>  <Gold.PLP.Fitness>  (390) 
41.2542

>  <Gold.PLP.PLP>  (390) 
-27.7036

>  <Gold.PLP.ligand.clash>  (390) 
0.0000

>  <Gold.PLP.ligand.torsion>  (390) 
0.5007

>  <Gold.PLP.part.buried>  (390) 
-5.7454

>  <Gold.PLP.part.hbond>  (390) 
-7.9296

>  <Gold.PLP.part.metal>  (390) 
0.0000

>  <Gold.PLP.part.nonpolar>  (390) 
-15.6884

>  <Gold.PLP.part.repulsive>  (390) 
0.3192

>  <Gold.Protein.RotatedAtoms>  (390) 


>  <Gold.Protein.RotatedTorsions>  (390) 


>  <Gold.Protein.RotatedWaterAtoms>  (390) 


>  <Gold.Version>  (390) 
5.3.0

>  <PLP.Chemscore.CHOScore>  (390) 


>  <PLP.Chemscore.Hbond>  (390) 


>  <PLP.Chemscore.Internal.Correction>  (390) 


>  <PLP.Chemscore.Metal>  (390) 


>  <PLP.Fitness>  (390) 


>  <PLP.PLP>  (390) 


>  <PLP.ligand.clash>  (390) 


>  <PLP.ligand.torsion>  (390) 


>  <PLP.part.buried>  (390) 


>  <PLP.part.hbond>  (390) 


>  <PLP.part.metal>  (390) 


>  <PLP.part.nonpolar>  (390) 


>  <PLP.part.repulsive>  (390) 


>  <Version>  (390) 


$$$$
390|Compound_201|Compounds_3D_F|sdf|53|dock9|1
     RDKit          3D

 12 11  0  0  0  0  0  0  0  0999 V2000
   -5.5049  -15.0143    8.8372 O   0  0  0  0  0  0  0  0  0  0  0  0
   -5.7409  -16.4971    9.4208 P   0  0  0  0  0  0  0  0  0  0  0  0
   -7.0618  -17.0906    9.0516 O   0  0  0  0  0  0  0  0  0  0  0  0
   -4.4889  -17.2698    8.7701 O   0  0  0  0  0  0  0  0  0  0  0  0
   -5.3454  -16.3855   11.1656 C   0  0  0  0  0  0  0  0  0  0  0  0
   -5.0695  -15.0086   11.5191 N   0  0  0  0  0  0  0  0  0  0  0  0
   -6.0034  -14.1926   12.1264 C   0  0  0  0  0  0  0  0  0  0  0  0
   -7.1153  -14.5650   12.4861 O   0  0  0  0  0  0  0  0  0  0  0  0
   -5.5212  -12.7422   12.2380 C   0  0  0  0  0  0  0  0  0  0  0  0
   -4.5994  -12.6053   13.3983 N   0  0  0  0  0  0  0  0  0  0  0  0
   -6.7005  -11.7622   12.3402 C   0  0  0  0  0  0  0  0  0  0  0  0
   -6.2261  -10.3811   12.5059 N   0  0  0  0  0  0  0  0  0  0  0  0
  1  2  1  0
  2  3  2  0
  2  4  1  0
  2  5  1  0
  5  6  1  0
  6  7  1  0
  7  8  2  0
  7  9  1  0
  9 10  1  0
  9 11  1  0
 11 12  1  0
M  END
>  <Gold.Gold.Protein.RotatedWaterAtoms>  (391) 


>  <Gold.Id.Protein>  (391) 


>  <Gold.PLP.Chemscore.CHOScore>  (391) 
0.0000

>  <Gold.PLP.Chemscore.Hbond>  (391) 
3.6960

>  <Gold.PLP.Chemscore.Internal.Correction>  (391) 
0.1355

>  <Gold.PLP.Chemscore.Metal>  (391) 
0.0000

>  <Gold.PLP.Fitness>  (391) 
37.4532

>  <Gold.PLP.PLP>  (391) 
-27.8057

>  <Gold.PLP.ligand.clash>  (391) 
0.0000

>  <Gold.PLP.ligand.torsion>  (391) 
0.7880

>  <Gold.PLP.part.buried>  (391) 
-6.7966

>  <Gold.PLP.part.hbond>  (391) 
-6.8535

>  <Gold.PLP.part.metal>  (391) 
0.0000

>  <Gold.PLP.part.nonpolar>  (391) 
-13.7674

>  <Gold.PLP.part.repulsive>  (391) 
0.2133

>  <Gold.Protein.RotatedAtoms>  (391) 


>  <Gold.Protein.RotatedTorsions>  (391) 


>  <Gold.Protein.RotatedWaterAtoms>  (391) 


>  <Gold.Version>  (391) 
5.3.0

>  <PLP.Chemscore.CHOScore>  (391) 


>  <PLP.Chemscore.Hbond>  (391) 


>  <PLP.Chemscore.Internal.Correction>  (391) 


>  <PLP.Chemscore.Metal>  (391) 


>  <PLP.Fitness>  (391) 


>  <PLP.PLP>  (391) 


>  <PLP.ligand.clash>  (391) 


>  <PLP.ligand.torsion>  (391) 


>  <PLP.part.buried>  (391) 


>  <PLP.part.hbond>  (391) 


>  <PLP.part.metal>  (391) 


>  <PLP.part.nonpolar>  (391) 


>  <PLP.part.repulsive>  (391) 


>  <Version>  (391) 


$$$$
391|Compound_202|Compounds_3D_F|sdf|54|dock1|1
     RDKit          3D

 13 12  0  0  0  0  0  0  0  0999 V2000
   -4.7140  -17.8663    9.2600 O   0  0  0  0  0  0  0  0  0  0  0  0
   -3.9538  -17.5086   10.6312 P   0  0  0  0  0  0  0  0  0  0  0  0
   -3.2922  -18.6733   11.2974 O   0  0  0  0  0  0  0  0  0  0  0  0
   -2.9455  -16.3560   10.1337 O   0  0  0  0  0  0  0  0  0  0  0  0
   -5.2243  -16.6658   11.6164 C   0  0  0  0  0  0  0  0  0  0  0  0
   -4.9971  -15.2180   11.5932 N   0  0  0  0  0  0  0  0  0  0  0  0
   -5.8370  -14.3407   12.2435 C   0  0  0  0  0  0  0  0  0  0  0  0
   -6.8680  -14.7278   12.8025 O   0  0  0  0  0  0  0  0  0  0  0  0
   -5.4359  -12.8690   12.1473 C   0  0  0  0  0  0  0  0  0  0  0  0
   -4.6568  -12.4916   13.3446 N   0  0  0  0  0  0  0  0  0  0  0  0
   -6.7065  -12.0079   12.0155 C   0  0  0  0  0  0  0  0  0  0  0  0
   -6.3717  -10.5848   11.8982 N   0  0  0  0  0  0  0  0  0  0  0  0
   -5.2660  -17.1644   13.0536 C   0  0  0  0  0  0  0  0  0  0  0  0
  1  2  1  0
  2  3  2  0
  2  4  1  0
  2  5  1  0
  5  6  1  0
  5 13  1  0
  6  7  1  0
  7  8  2  0
  7  9  1  0
  9 10  1  0
  9 11  1  0
 11 12  1  0
M  END
>  <Gold.Gold.Protein.RotatedWaterAtoms>  (392) 


>  <Gold.Id.Protein>  (392) 


>  <Gold.PLP.Chemscore.CHOScore>  (392) 
0.0000

>  <Gold.PLP.Chemscore.Hbond>  (392) 
5.4719

>  <Gold.PLP.Chemscore.Internal.Correction>  (392) 
0.2448

>  <Gold.PLP.Chemscore.Metal>  (392) 
0.0000

>  <Gold.PLP.Fitness>  (392) 
43.5096

>  <Gold.PLP.PLP>  (392) 
-28.8641

>  <Gold.PLP.ligand.clash>  (392) 
0.0000

>  <Gold.PLP.ligand.torsion>  (392) 
1.0076

>  <Gold.PLP.part.buried>  (392) 
-6.4694

>  <Gold.PLP.part.hbond>  (392) 
-6.4159

>  <Gold.PLP.part.metal>  (392) 
0.0000

>  <Gold.PLP.part.nonpolar>  (392) 
-17.9235

>  <Gold.PLP.part.repulsive>  (392) 
0.2173

>  <Gold.Protein.RotatedAtoms>  (392) 


>  <Gold.Protein.RotatedTorsions>  (392) 


>  <Gold.Protein.RotatedWaterAtoms>  (392) 


>  <Gold.Version>  (392) 
5.3.0

>  <PLP.Chemscore.CHOScore>  (392) 


>  <PLP.Chemscore.Hbond>  (392) 


>  <PLP.Chemscore.Internal.Correction>  (392) 


>  <PLP.Chemscore.Metal>  (392) 


>  <PLP.Fitness>  (392) 


>  <PLP.PLP>  (392) 


>  <PLP.ligand.clash>  (392) 


>  <PLP.ligand.torsion>  (392) 


>  <PLP.part.buried>  (392) 


>  <PLP.part.hbond>  (392) 


>  <PLP.part.metal>  (392) 


>  <PLP.part.nonpolar>  (392) 


>  <PLP.part.repulsive>  (392) 


>  <Version>  (392) 


$$$$
392|Compound_202|Compounds_3D_F|sdf|54|dock2|1
     RDKit          3D

 13 12  0  0  0  0  0  0  0  0999 V2000
   -4.8103  -17.6360    9.2206 O   0  0  0  0  0  0  0  0  0  0  0  0
   -4.1419  -17.3521   10.6554 P   0  0  0  0  0  0  0  0  0  0  0  0
   -3.5900  -18.5652   11.3350 O   0  0  0  0  0  0  0  0  0  0  0  0
   -3.0443  -16.2387   10.2699 O   0  0  0  0  0  0  0  0  0  0  0  0
   -5.4428  -16.4727   11.5660 C   0  0  0  0  0  0  0  0  0  0  0  0
   -5.1192  -15.0455   11.6480 N   0  0  0  0  0  0  0  0  0  0  0  0
   -6.0091  -14.1275   12.1613 C   0  0  0  0  0  0  0  0  0  0  0  0
   -7.1527  -14.4533   12.4949 O   0  0  0  0  0  0  0  0  0  0  0  0
   -5.4994  -12.6873   12.2062 C   0  0  0  0  0  0  0  0  0  0  0  0
   -4.6389  -12.5061   13.3934 N   0  0  0  0  0  0  0  0  0  0  0  0
   -6.7038  -11.7273   12.2396 C   0  0  0  0  0  0  0  0  0  0  0  0
   -6.2979  -10.3570   11.9099 N   0  0  0  0  0  0  0  0  0  0  0  0
   -5.6558  -17.0404   12.9618 C   0  0  0  0  0  0  0  0  0  0  0  0
  1  2  1  0
  2  3  2  0
  2  4  1  0
  2  5  1  0
  5  6  1  0
  5 13  1  0
  6  7  1  0
  7  8  2  0
  7  9  1  0
  9 10  1  0
  9 11  1  0
 11 12  1  0
M  END
>  <Gold.Gold.Protein.RotatedWaterAtoms>  (393) 


>  <Gold.Id.Protein>  (393) 


>  <Gold.PLP.Chemscore.CHOScore>  (393) 
0.0000

>  <Gold.PLP.Chemscore.Hbond>  (393) 
5.0974

>  <Gold.PLP.Chemscore.Internal.Correction>  (393) 
0.2448

>  <Gold.PLP.Chemscore.Metal>  (393) 
0.0000

>  <Gold.PLP.Fitness>  (393) 
44.3571

>  <Gold.PLP.PLP>  (393) 
-30.6806

>  <Gold.PLP.ligand.clash>  (393) 
0.0000

>  <Gold.PLP.ligand.torsion>  (393) 
0.9302

>  <Gold.PLP.part.buried>  (393) 
-6.6315

>  <Gold.PLP.part.hbond>  (393) 
-6.1300

>  <Gold.PLP.part.metal>  (393) 
0.0000

>  <Gold.PLP.part.nonpolar>  (393) 
-17.9649

>  <Gold.PLP.part.repulsive>  (393) 
0.2024

>  <Gold.Protein.RotatedAtoms>  (393) 


>  <Gold.Protein.RotatedTorsions>  (393) 


>  <Gold.Protein.RotatedWaterAtoms>  (393) 


>  <Gold.Version>  (393) 
5.3.0

>  <PLP.Chemscore.CHOScore>  (393) 


>  <PLP.Chemscore.Hbond>  (393) 


>  <PLP.Chemscore.Internal.Correction>  (393) 


>  <PLP.Chemscore.Metal>  (393) 


>  <PLP.Fitness>  (393) 


>  <PLP.PLP>  (393) 


>  <PLP.ligand.clash>  (393) 


>  <PLP.ligand.torsion>  (393) 


>  <PLP.part.buried>  (393) 


>  <PLP.part.hbond>  (393) 


>  <PLP.part.metal>  (393) 


>  <PLP.part.nonpolar>  (393) 


>  <PLP.part.repulsive>  (393) 


>  <Version>  (393) 


$$$$
393|Compound_202|Compounds_3D_F|sdf|54|dock3|1
     RDKit          3D

 13 12  0  0  0  0  0  0  0  0999 V2000
   -5.7962  -15.2087    8.6956 O   0  0  0  0  0  0  0  0  0  0  0  0
   -5.3375  -16.5053    9.5291 P   0  0  0  0  0  0  0  0  0  0  0  0
   -5.9260  -17.7937    9.0479 O   0  0  0  0  0  0  0  0  0  0  0  0
   -3.7357  -16.4062    9.3974 O   0  0  0  0  0  0  0  0  0  0  0  0
   -5.7226  -16.0662   11.2478 C   0  0  0  0  0  0  0  0  0  0  0  0
   -5.3128  -14.6846   11.5154 N   0  0  0  0  0  0  0  0  0  0  0  0
   -6.2018  -13.7410   11.9816 C   0  0  0  0  0  0  0  0  0  0  0  0
   -7.4035  -13.9945   12.1120 O   0  0  0  0  0  0  0  0  0  0  0  0
   -5.6021  -12.3592   12.2409 C   0  0  0  0  0  0  0  0  0  0  0  0
   -4.6804  -12.4308   13.3933 N   0  0  0  0  0  0  0  0  0  0  0  0
   -6.7418  -11.3559   12.5009 C   0  0  0  0  0  0  0  0  0  0  0  0
   -6.2454   -9.9758   12.4874 N   0  0  0  0  0  0  0  0  0  0  0  0
   -5.0650  -17.0081   12.2459 C   0  0  0  0  0  0  0  0  0  0  0  0
  1  2  1  0
  2  3  2  0
  2  4  1  0
  2  5  1  0
  5  6  1  0
  5 13  1  0
  6  7  1  0
  7  8  2  0
  7  9  1  0
  9 10  1  0
  9 11  1  0
 11 12  1  0
M  END
>  <Gold.Gold.Protein.RotatedWaterAtoms>  (394) 


>  <Gold.Id.Protein>  (394) 


>  <Gold.PLP.Chemscore.CHOScore>  (394) 
0.0000

>  <Gold.PLP.Chemscore.Hbond>  (394) 
4.7520

>  <Gold.PLP.Chemscore.Internal.Correction>  (394) 
0.2448

>  <Gold.PLP.Chemscore.Metal>  (394) 
0.0000

>  <Gold.PLP.Fitness>  (394) 
43.4592

>  <Gold.PLP.PLP>  (394) 
-29.9649

>  <Gold.PLP.ligand.clash>  (394) 
0.0000

>  <Gold.PLP.ligand.torsion>  (394) 
0.5033

>  <Gold.PLP.part.buried>  (394) 
-5.6300

>  <Gold.PLP.part.hbond>  (394) 
-7.7310

>  <Gold.PLP.part.metal>  (394) 
0.0000

>  <Gold.PLP.part.nonpolar>  (394) 
-16.2579

>  <Gold.PLP.part.repulsive>  (394) 
0.1966

>  <Gold.Protein.RotatedAtoms>  (394) 


>  <Gold.Protein.RotatedTorsions>  (394) 


>  <Gold.Protein.RotatedWaterAtoms>  (394) 


>  <Gold.Version>  (394) 
5.3.0

>  <PLP.Chemscore.CHOScore>  (394) 


>  <PLP.Chemscore.Hbond>  (394) 


>  <PLP.Chemscore.Internal.Correction>  (394) 


>  <PLP.Chemscore.Metal>  (394) 


>  <PLP.Fitness>  (394) 


>  <PLP.PLP>  (394) 


>  <PLP.ligand.clash>  (394) 


>  <PLP.ligand.torsion>  (394) 


>  <PLP.part.buried>  (394) 


>  <PLP.part.hbond>  (394) 


>  <PLP.part.metal>  (394) 


>  <PLP.part.nonpolar>  (394) 


>  <PLP.part.repulsive>  (394) 


>  <Version>  (394) 


$$$$
394|Compound_202|Compounds_3D_F|sdf|54|dock4|1
     RDKit          3D

 13 12  0  0  0  0  0  0  0  0999 V2000
   -4.9625  -16.0632    8.9141 O   0  0  0  0  0  0  0  0  0  0  0  0
   -4.6263  -16.8943   10.2492 P   0  0  0  0  0  0  0  0  0  0  0  0
   -4.8097  -18.3737   10.1233 O   0  0  0  0  0  0  0  0  0  0  0  0
   -3.1120  -16.4255   10.5318 O   0  0  0  0  0  0  0  0  0  0  0  0
   -5.6411  -16.0886   11.5205 C   0  0  0  0  0  0  0  0  0  0  0  0
   -5.3121  -14.6622   11.5939 N   0  0  0  0  0  0  0  0  0  0  0  0
   -6.1900  -13.7407   12.1214 C   0  0  0  0  0  0  0  0  0  0  0  0
   -7.3284  -14.0627   12.4762 O   0  0  0  0  0  0  0  0  0  0  0  0
   -5.6757  -12.3018   12.1542 C   0  0  0  0  0  0  0  0  0  0  0  0
   -4.5675  -12.1969   13.1257 N   0  0  0  0  0  0  0  0  0  0  0  0
   -6.8360  -11.3603   12.5292 C   0  0  0  0  0  0  0  0  0  0  0  0
   -6.7075  -10.0659   11.8516 N   0  0  0  0  0  0  0  0  0  0  0  0
   -5.4730  -16.7338   12.8885 C   0  0  0  0  0  0  0  0  0  0  0  0
  1  2  1  0
  2  3  2  0
  2  4  1  0
  2  5  1  0
  5  6  1  0
  5 13  1  0
  6  7  1  0
  7  8  2  0
  7  9  1  0
  9 10  1  0
  9 11  1  0
 11 12  1  0
M  END
>  <Gold.Gold.Protein.RotatedWaterAtoms>  (395) 


>  <Gold.Id.Protein>  (395) 


>  <Gold.PLP.Chemscore.CHOScore>  (395) 
0.0000

>  <Gold.PLP.Chemscore.Hbond>  (395) 
4.7389

>  <Gold.PLP.Chemscore.Internal.Correction>  (395) 
0.2343

>  <Gold.PLP.Chemscore.Metal>  (395) 
0.0000

>  <Gold.PLP.Fitness>  (395) 
43.0870

>  <Gold.PLP.PLP>  (395) 
-30.6274

>  <Gold.PLP.ligand.clash>  (395) 
0.0000

>  <Gold.PLP.ligand.torsion>  (395) 
0.9957

>  <Gold.PLP.part.buried>  (395) 
-6.5497

>  <Gold.PLP.part.hbond>  (395) 
-7.9544

>  <Gold.PLP.part.metal>  (395) 
0.0000

>  <Gold.PLP.part.nonpolar>  (395) 
-16.3413

>  <Gold.PLP.part.repulsive>  (395) 
0.2165

>  <Gold.Protein.RotatedAtoms>  (395) 


>  <Gold.Protein.RotatedTorsions>  (395) 


>  <Gold.Protein.RotatedWaterAtoms>  (395) 


>  <Gold.Version>  (395) 
5.3.0

>  <PLP.Chemscore.CHOScore>  (395) 


>  <PLP.Chemscore.Hbond>  (395) 


>  <PLP.Chemscore.Internal.Correction>  (395) 


>  <PLP.Chemscore.Metal>  (395) 


>  <PLP.Fitness>  (395) 


>  <PLP.PLP>  (395) 


>  <PLP.ligand.clash>  (395) 


>  <PLP.ligand.torsion>  (395) 


>  <PLP.part.buried>  (395) 


>  <PLP.part.hbond>  (395) 


>  <PLP.part.metal>  (395) 


>  <PLP.part.nonpolar>  (395) 


>  <PLP.part.repulsive>  (395) 


>  <Version>  (395) 


$$$$
395|Compound_202|Compounds_3D_F|sdf|54|dock5|1
     RDKit          3D

 13 12  0  0  0  0  0  0  0  0999 V2000
   -4.7562  -16.3597    9.0560 O   0  0  0  0  0  0  0  0  0  0  0  0
   -4.2243  -17.1846   10.3298 P   0  0  0  0  0  0  0  0  0  0  0  0
   -4.3338  -18.6708   10.1978 O   0  0  0  0  0  0  0  0  0  0  0  0
   -2.7178  -16.6288   10.4505 O   0  0  0  0  0  0  0  0  0  0  0  0
   -5.1353  -16.4565   11.7208 C   0  0  0  0  0  0  0  0  0  0  0  0
   -4.9223  -15.0067   11.7546 N   0  0  0  0  0  0  0  0  0  0  0  0
   -5.9000  -14.1392   12.1901 C   0  0  0  0  0  0  0  0  0  0  0  0
   -7.0302  -14.5373   12.4892 O   0  0  0  0  0  0  0  0  0  0  0  0
   -5.5011  -12.6637   12.1940 C   0  0  0  0  0  0  0  0  0  0  0  0
   -4.7200  -12.3680   13.4128 N   0  0  0  0  0  0  0  0  0  0  0  0
   -6.7731  -11.7975   12.1240 C   0  0  0  0  0  0  0  0  0  0  0  0
   -6.4424  -10.3908   11.8730 N   0  0  0  0  0  0  0  0  0  0  0  0
   -4.7415  -17.0729   13.0553 C   0  0  0  0  0  0  0  0  0  0  0  0
  1  2  1  0
  2  3  2  0
  2  4  1  0
  2  5  1  0
  5  6  1  0
  5 13  1  0
  6  7  1  0
  7  8  2  0
  7  9  1  0
  9 10  1  0
  9 11  1  0
 11 12  1  0
M  END
>  <Gold.Gold.Protein.RotatedWaterAtoms>  (396) 


>  <Gold.Id.Protein>  (396) 


>  <Gold.PLP.Chemscore.CHOScore>  (396) 
0.0000

>  <Gold.PLP.Chemscore.Hbond>  (396) 
5.2153

>  <Gold.PLP.Chemscore.Internal.Correction>  (396) 
0.2343

>  <Gold.PLP.Chemscore.Metal>  (396) 
0.0000

>  <Gold.PLP.Fitness>  (396) 
47.2382

>  <Gold.PLP.PLP>  (396) 
-33.6195

>  <Gold.PLP.ligand.clash>  (396) 
0.0000

>  <Gold.PLP.ligand.torsion>  (396) 
1.1306

>  <Gold.PLP.part.buried>  (396) 
-7.3969

>  <Gold.PLP.part.hbond>  (396) 
-8.0820

>  <Gold.PLP.part.metal>  (396) 
0.0000

>  <Gold.PLP.part.nonpolar>  (396) 
-18.4045

>  <Gold.PLP.part.repulsive>  (396) 
0.2169

>  <Gold.Protein.RotatedAtoms>  (396) 


>  <Gold.Protein.RotatedTorsions>  (396) 


>  <Gold.Protein.RotatedWaterAtoms>  (396) 


>  <Gold.Version>  (396) 
5.3.0

>  <PLP.Chemscore.CHOScore>  (396) 


>  <PLP.Chemscore.Hbond>  (396) 


>  <PLP.Chemscore.Internal.Correction>  (396) 


>  <PLP.Chemscore.Metal>  (396) 


>  <PLP.Fitness>  (396) 


>  <PLP.PLP>  (396) 


>  <PLP.ligand.clash>  (396) 


>  <PLP.ligand.torsion>  (396) 


>  <PLP.part.buried>  (396) 


>  <PLP.part.hbond>  (396) 


>  <PLP.part.metal>  (396) 


>  <PLP.part.nonpolar>  (396) 


>  <PLP.part.repulsive>  (396) 


>  <Version>  (396) 


$$$$
396|Compound_203|Compounds_3D_F|sdf|55|dock1|1
     RDKit          3D

 11 10  0  0  0  0  0  0  0  0999 V2000
   -4.5461  -15.9989   10.5913 O   0  0  0  0  0  0  0  0  0  0  0  0
   -5.9221  -16.1695    9.7574 S   0  0  0  0  0  0  0  0  0  0  0  0
   -5.9052  -15.2063    8.6803 O   0  0  0  0  0  0  0  0  0  0  0  0
   -6.1363  -17.5767    9.5078 O   0  0  0  0  0  0  0  0  0  0  0  0
   -7.0976  -15.6776   10.8454 N   0  0  0  0  0  0  0  0  0  0  0  0
   -7.0765  -14.4010   11.4412 C   0  0  0  0  0  0  0  0  0  0  0  0
   -6.0950  -13.6735   11.3030 O   0  0  0  0  0  0  0  0  0  0  0  0
   -8.3141  -14.0155   12.2486 C   0  0  0  0  0  0  0  0  0  0  0  0
   -9.2443  -15.1658   12.3342 N   0  0  0  0  0  0  0  0  0  0  0  0
   -8.9917  -12.8138   11.5682 C   0  0  0  0  0  0  0  0  0  0  0  0
  -10.1634  -13.2387   10.8024 N   0  0  0  0  0  0  0  0  0  0  0  0
  1  2  1  0
  2  3  2  0
  2  4  2  0
  2  5  1  0
  5  6  1  0
  6  7  2  0
  6  8  1  0
  8  9  1  0
  8 10  1  0
 10 11  1  0
M  END
>  <Gold.Gold.Protein.RotatedWaterAtoms>  (397) 


>  <Gold.Id.Protein>  (397) 


>  <Gold.PLP.Chemscore.CHOScore>  (397) 
0.0000

>  <Gold.PLP.Chemscore.Hbond>  (397) 
5.5658

>  <Gold.PLP.Chemscore.Internal.Correction>  (397) 
1.0041

>  <Gold.PLP.Chemscore.Metal>  (397) 
0.0000

>  <Gold.PLP.Fitness>  (397) 
35.6665

>  <Gold.PLP.PLP>  (397) 
-20.3057

>  <Gold.PLP.ligand.clash>  (397) 
0.0000

>  <Gold.PLP.ligand.torsion>  (397) 
1.1703

>  <Gold.PLP.part.buried>  (397) 
-3.9846

>  <Gold.PLP.part.hbond>  (397) 
-6.9183

>  <Gold.PLP.part.metal>  (397) 
0.0000

>  <Gold.PLP.part.nonpolar>  (397) 
-10.7659

>  <Gold.PLP.part.repulsive>  (397) 
0.4099

>  <Gold.Protein.RotatedAtoms>  (397) 


>  <Gold.Protein.RotatedTorsions>  (397) 


>  <Gold.Protein.RotatedWaterAtoms>  (397) 


>  <Gold.Version>  (397) 
5.3.0

>  <PLP.Chemscore.CHOScore>  (397) 


>  <PLP.Chemscore.Hbond>  (397) 


>  <PLP.Chemscore.Internal.Correction>  (397) 


>  <PLP.Chemscore.Metal>  (397) 


>  <PLP.Fitness>  (397) 


>  <PLP.PLP>  (397) 


>  <PLP.ligand.clash>  (397) 


>  <PLP.ligand.torsion>  (397) 


>  <PLP.part.buried>  (397) 


>  <PLP.part.hbond>  (397) 


>  <PLP.part.metal>  (397) 


>  <PLP.part.nonpolar>  (397) 


>  <PLP.part.repulsive>  (397) 


>  <Version>  (397) 


$$$$
397|Compound_203|Compounds_3D_F|sdf|55|dock2|1
     RDKit          3D

 11 10  0  0  0  0  0  0  0  0999 V2000
   -9.9669  -14.2326   12.6873 O   0  0  0  0  0  0  0  0  0  0  0  0
   -8.8601  -14.0642   11.5192 S   0  0  0  0  0  0  0  0  0  0  0  0
   -9.2523  -14.9124   10.4170 O   0  0  0  0  0  0  0  0  0  0  0  0
   -8.6011  -12.6549   11.3316 O   0  0  0  0  0  0  0  0  0  0  0  0
   -7.4801  -14.7332   12.1942 N   0  0  0  0  0  0  0  0  0  0  0  0
   -6.6747  -15.6513   11.4917 C   0  0  0  0  0  0  0  0  0  0  0  0
   -7.0606  -16.1143   10.4199 O   0  0  0  0  0  0  0  0  0  0  0  0
   -5.3455  -16.0187   12.1476 C   0  0  0  0  0  0  0  0  0  0  0  0
   -4.4601  -14.8317   12.2024 N   0  0  0  0  0  0  0  0  0  0  0  0
   -4.6923  -17.1511   11.3369 C   0  0  0  0  0  0  0  0  0  0  0  0
   -4.2553  -16.6709   10.0260 N   0  0  0  0  0  0  0  0  0  0  0  0
  1  2  1  0
  2  3  2  0
  2  4  2  0
  2  5  1  0
  5  6  1  0
  6  7  2  0
  6  8  1  0
  8  9  1  0
  8 10  1  0
 10 11  1  0
M  END
>  <Gold.Gold.Protein.RotatedWaterAtoms>  (398) 


>  <Gold.Id.Protein>  (398) 


>  <Gold.PLP.Chemscore.CHOScore>  (398) 
0.0000

>  <Gold.PLP.Chemscore.Hbond>  (398) 
3.9500

>  <Gold.PLP.Chemscore.Internal.Correction>  (398) 
1.0026

>  <Gold.PLP.Chemscore.Metal>  (398) 
0.0000

>  <Gold.PLP.Fitness>  (398) 
34.4334

>  <Gold.PLP.PLP>  (398) 
-22.9355

>  <Gold.PLP.ligand.clash>  (398) 
0.0163

>  <Gold.PLP.ligand.torsion>  (398) 
0.6692

>  <Gold.PLP.part.buried>  (398) 
-5.8829

>  <Gold.PLP.part.hbond>  (398) 
-6.7477

>  <Gold.PLP.part.metal>  (398) 
0.0000

>  <Gold.PLP.part.nonpolar>  (398) 
-10.7305

>  <Gold.PLP.part.repulsive>  (398) 
1.0925

>  <Gold.Protein.RotatedAtoms>  (398) 


>  <Gold.Protein.RotatedTorsions>  (398) 


>  <Gold.Protein.RotatedWaterAtoms>  (398) 


>  <Gold.Version>  (398) 
5.3.0

>  <PLP.Chemscore.CHOScore>  (398) 


>  <PLP.Chemscore.Hbond>  (398) 


>  <PLP.Chemscore.Internal.Correction>  (398) 


>  <PLP.Chemscore.Metal>  (398) 


>  <PLP.Fitness>  (398) 


>  <PLP.PLP>  (398) 


>  <PLP.ligand.clash>  (398) 


>  <PLP.ligand.torsion>  (398) 


>  <PLP.part.buried>  (398) 


>  <PLP.part.hbond>  (398) 


>  <PLP.part.metal>  (398) 


>  <PLP.part.nonpolar>  (398) 


>  <PLP.part.repulsive>  (398) 


>  <Version>  (398) 


$$$$
398|Compound_203|Compounds_3D_F|sdf|55|dock3|1
     RDKit          3D

 11 10  0  0  0  0  0  0  0  0999 V2000
   -5.5552  -16.5863   10.4710 O   0  0  0  0  0  0  0  0  0  0  0  0
   -5.1876  -16.3282   12.0254 S   0  0  0  0  0  0  0  0  0  0  0  0
   -6.3916  -16.5247   12.7999 O   0  0  0  0  0  0  0  0  0  0  0  0
   -3.9680  -17.0398   12.3331 O   0  0  0  0  0  0  0  0  0  0  0  0
   -4.8284  -14.6922   12.0717 N   0  0  0  0  0  0  0  0  0  0  0  0
   -5.8347  -13.7061   12.0615 C   0  0  0  0  0  0  0  0  0  0  0  0
   -7.0038  -14.0219   11.8482 O   0  0  0  0  0  0  0  0  0  0  0  0
   -5.3735  -12.2724   12.3142 C   0  0  0  0  0  0  0  0  0  0  0  0
   -4.6007  -12.2016   13.5766 N   0  0  0  0  0  0  0  0  0  0  0  0
   -6.6108  -11.3608   12.3786 C   0  0  0  0  0  0  0  0  0  0  0  0
   -6.2199   -9.9565   12.5010 N   0  0  0  0  0  0  0  0  0  0  0  0
  1  2  1  0
  2  3  2  0
  2  4  2  0
  2  5  1  0
  5  6  1  0
  6  7  2  0
  6  8  1  0
  8  9  1  0
  8 10  1  0
 10 11  1  0
M  END
>  <Gold.Gold.Protein.RotatedWaterAtoms>  (399) 


>  <Gold.Id.Protein>  (399) 


>  <Gold.PLP.Chemscore.CHOScore>  (399) 
0.0000

>  <Gold.PLP.Chemscore.Hbond>  (399) 
4.0000

>  <Gold.PLP.Chemscore.Internal.Correction>  (399) 
1.0026

>  <Gold.PLP.Chemscore.Metal>  (399) 
0.0000

>  <Gold.PLP.Fitness>  (399) 
37.1039

>  <Gold.PLP.PLP>  (399) 
-25.2529

>  <Gold.PLP.ligand.clash>  (399) 
0.0000

>  <Gold.PLP.ligand.torsion>  (399) 
0.5758

>  <Gold.PLP.part.buried>  (399) 
-5.5192

>  <Gold.PLP.part.hbond>  (399) 
-6.4193

>  <Gold.PLP.part.metal>  (399) 
0.0000

>  <Gold.PLP.part.nonpolar>  (399) 
-14.0804

>  <Gold.PLP.part.repulsive>  (399) 
0.3651

>  <Gold.Protein.RotatedAtoms>  (399) 


>  <Gold.Protein.RotatedTorsions>  (399) 


>  <Gold.Protein.RotatedWaterAtoms>  (399) 


>  <Gold.Version>  (399) 
5.3.0

>  <PLP.Chemscore.CHOScore>  (399) 


>  <PLP.Chemscore.Hbond>  (399) 


>  <PLP.Chemscore.Internal.Correction>  (399) 


>  <PLP.Chemscore.Metal>  (399) 


>  <PLP.Fitness>  (399) 


>  <PLP.PLP>  (399) 


>  <PLP.ligand.clash>  (399) 


>  <PLP.ligand.torsion>  (399) 


>  <PLP.part.buried>  (399) 


>  <PLP.part.hbond>  (399) 


>  <PLP.part.metal>  (399) 


>  <PLP.part.nonpolar>  (399) 


>  <PLP.part.repulsive>  (399) 


>  <Version>  (399) 


$$$$
399|Compound_203|Compounds_3D_F|sdf|55|dock4|1
     RDKit          3D

 11 10  0  0  0  0  0  0  0  0999 V2000
   -4.6849  -16.0738   10.2845 O   0  0  0  0  0  0  0  0  0  0  0  0
   -6.1743  -15.8288    9.7018 S   0  0  0  0  0  0  0  0  0  0  0  0
   -6.0428  -15.1638    8.4257 O   0  0  0  0  0  0  0  0  0  0  0  0
   -6.9287  -17.0536    9.8401 O   0  0  0  0  0  0  0  0  0  0  0  0
   -6.8320  -14.7215   10.7737 N   0  0  0  0  0  0  0  0  0  0  0  0
   -8.1847  -14.7730   11.1644 C   0  0  0  0  0  0  0  0  0  0  0  0
   -8.9613  -15.5372   10.5945 O   0  0  0  0  0  0  0  0  0  0  0  0
   -8.5934  -13.8337   12.2970 C   0  0  0  0  0  0  0  0  0  0  0  0
   -9.9910  -14.1080   12.7060 N   0  0  0  0  0  0  0  0  0  0  0  0
   -8.4404  -12.3818   11.8126 C   0  0  0  0  0  0  0  0  0  0  0  0
   -7.0460  -11.9473   11.8948 N   0  0  0  0  0  0  0  0  0  0  0  0
  1  2  1  0
  2  3  2  0
  2  4  2  0
  2  5  1  0
  5  6  1  0
  6  7  2  0
  6  8  1  0
  8  9  1  0
  8 10  1  0
 10 11  1  0
M  END
>  <Gold.Gold.Protein.RotatedWaterAtoms>  (400) 


>  <Gold.Id.Protein>  (400) 


>  <Gold.PLP.Chemscore.CHOScore>  (400) 
0.0000

>  <Gold.PLP.Chemscore.Hbond>  (400) 
3.9913

>  <Gold.PLP.Chemscore.Internal.Correction>  (400) 
1.0025

>  <Gold.PLP.Chemscore.Metal>  (400) 
0.0000

>  <Gold.PLP.Fitness>  (400) 
33.2809

>  <Gold.PLP.PLP>  (400) 
-22.0184

>  <Gold.PLP.ligand.clash>  (400) 
0.0000

>  <Gold.PLP.ligand.torsion>  (400) 
0.8569

>  <Gold.PLP.part.buried>  (400) 
-5.7142

>  <Gold.PLP.part.hbond>  (400) 
-5.8149

>  <Gold.PLP.part.metal>  (400) 
0.0000

>  <Gold.PLP.part.nonpolar>  (400) 
-11.4605

>  <Gold.PLP.part.repulsive>  (400) 
0.3852

>  <Gold.Protein.RotatedAtoms>  (400) 


>  <Gold.Protein.RotatedTorsions>  (400) 


>  <Gold.Protein.RotatedWaterAtoms>  (400) 


>  <Gold.Version>  (400) 
5.3.0

>  <PLP.Chemscore.CHOScore>  (400) 


>  <PLP.Chemscore.Hbond>  (400) 


>  <PLP.Chemscore.Internal.Correction>  (400) 


>  <PLP.Chemscore.Metal>  (400) 


>  <PLP.Fitness>  (400) 


>  <PLP.PLP>  (400) 


>  <PLP.ligand.clash>  (400) 


>  <PLP.ligand.torsion>  (400) 


>  <PLP.part.buried>  (400) 


>  <PLP.part.hbond>  (400) 


>  <PLP.part.metal>  (400) 


>  <PLP.part.nonpolar>  (400) 


>  <PLP.part.repulsive>  (400) 


>  <Version>  (400) 


$$$$
400|Compound_203|Compounds_3D_F|sdf|55|dock5|1
     RDKit          3D

 11 10  0  0  0  0  0  0  0  0999 V2000
   -9.7464  -14.2857   12.7009 O   0  0  0  0  0  0  0  0  0  0  0  0
   -8.7980  -13.9686   11.4290 S   0  0  0  0  0  0  0  0  0  0  0  0
   -9.1265  -14.9166   10.3891 O   0  0  0  0  0  0  0  0  0  0  0  0
   -8.8177  -12.5444   11.1852 O   0  0  0  0  0  0  0  0  0  0  0  0
   -7.2644  -14.3523   11.9845 N   0  0  0  0  0  0  0  0  0  0  0  0
   -6.7070  -15.6348   11.8128 C   0  0  0  0  0  0  0  0  0  0  0  0
   -7.4039  -16.5580   11.3958 O   0  0  0  0  0  0  0  0  0  0  0  0
   -5.2327  -15.7820   12.1825 C   0  0  0  0  0  0  0  0  0  0  0  0
   -4.5800  -14.4519   12.2108 N   0  0  0  0  0  0  0  0  0  0  0  0
   -4.5556  -16.7015   11.1519 C   0  0  0  0  0  0  0  0  0  0  0  0
   -3.1000  -16.5671   11.2078 N   0  0  0  0  0  0  0  0  0  0  0  0
  1  2  1  0
  2  3  2  0
  2  4  2  0
  2  5  1  0
  5  6  1  0
  6  7  2  0
  6  8  1  0
  8  9  1  0
  8 10  1  0
 10 11  1  0
M  END
>  <Gold.Gold.Protein.RotatedWaterAtoms>  (401) 


>  <Gold.Id.Protein>  (401) 


>  <Gold.PLP.Chemscore.CHOScore>  (401) 
0.0000

>  <Gold.PLP.Chemscore.Hbond>  (401) 
4.3640

>  <Gold.PLP.Chemscore.Internal.Correction>  (401) 
1.0025

>  <Gold.PLP.Chemscore.Metal>  (401) 
0.0000

>  <Gold.PLP.Fitness>  (401) 
35.5536

>  <Gold.PLP.PLP>  (401) 
-23.8630

>  <Gold.PLP.ligand.clash>  (401) 
0.0000

>  <Gold.PLP.ligand.torsion>  (401) 
1.2020

>  <Gold.PLP.part.buried>  (401) 
-6.2337

>  <Gold.PLP.part.hbond>  (401) 
-7.4514

>  <Gold.PLP.part.metal>  (401) 
0.0000

>  <Gold.PLP.part.nonpolar>  (401) 
-10.9363

>  <Gold.PLP.part.repulsive>  (401) 
1.0017

>  <Gold.Protein.RotatedAtoms>  (401) 


>  <Gold.Protein.RotatedTorsions>  (401) 


>  <Gold.Protein.RotatedWaterAtoms>  (401) 


>  <Gold.Version>  (401) 
5.3.0

>  <PLP.Chemscore.CHOScore>  (401) 


>  <PLP.Chemscore.Hbond>  (401) 


>  <PLP.Chemscore.Internal.Correction>  (401) 


>  <PLP.Chemscore.Metal>  (401) 


>  <PLP.Fitness>  (401) 


>  <PLP.PLP>  (401) 


>  <PLP.ligand.clash>  (401) 


>  <PLP.ligand.torsion>  (401) 


>  <PLP.part.buried>  (401) 


>  <PLP.part.hbond>  (401) 


>  <PLP.part.metal>  (401) 


>  <PLP.part.nonpolar>  (401) 


>  <PLP.part.repulsive>  (401) 


>  <Version>  (401) 


$$$$
401|Compound_203|Compounds_3D_F|sdf|55|dock6|1
     RDKit          3D

 11 10  0  0  0  0  0  0  0  0999 V2000
   -8.7413  -15.5629    7.9774 O   0  0  0  0  0  0  0  0  0  0  0  0
   -9.0145  -16.7315    9.0625 S   0  0  0  0  0  0  0  0  0  0  0  0
  -10.4238  -16.7137    9.3816 O   0  0  0  0  0  0  0  0  0  0  0  0
   -8.3579  -17.9380    8.6133 O   0  0  0  0  0  0  0  0  0  0  0  0
   -8.1908  -16.1987   10.4209 N   0  0  0  0  0  0  0  0  0  0  0  0
   -6.8182  -15.8830   10.3859 C   0  0  0  0  0  0  0  0  0  0  0  0
   -6.1497  -16.1527    9.3897 O   0  0  0  0  0  0  0  0  0  0  0  0
   -6.2493  -15.2179   11.6373 C   0  0  0  0  0  0  0  0  0  0  0  0
   -5.7287  -13.8708   11.3055 N   0  0  0  0  0  0  0  0  0  0  0  0
   -5.1332  -16.1107   12.2058 C   0  0  0  0  0  0  0  0  0  0  0  0
   -3.8335  -15.7460   11.6421 N   0  0  0  0  0  0  0  0  0  0  0  0
  1  2  1  0
  2  3  2  0
  2  4  2  0
  2  5  1  0
  5  6  1  0
  6  7  2  0
  6  8  1  0
  8  9  1  0
  8 10  1  0
 10 11  1  0
M  END
>  <Gold.Gold.Protein.RotatedWaterAtoms>  (402) 


>  <Gold.Id.Protein>  (402) 


>  <Gold.PLP.Chemscore.CHOScore>  (402) 
0.0000

>  <Gold.PLP.Chemscore.Hbond>  (402) 
4.5440

>  <Gold.PLP.Chemscore.Internal.Correction>  (402) 
1.0025

>  <Gold.PLP.Chemscore.Metal>  (402) 
0.0000

>  <Gold.PLP.Fitness>  (402) 
31.5307

>  <Gold.PLP.PLP>  (402) 
-18.7406

>  <Gold.PLP.ligand.clash>  (402) 
0.0000

>  <Gold.PLP.ligand.torsion>  (402) 
0.9222

>  <Gold.PLP.part.buried>  (402) 
-4.9521

>  <Gold.PLP.part.hbond>  (402) 
-5.9456

>  <Gold.PLP.part.metal>  (402) 
0.0000

>  <Gold.PLP.part.nonpolar>  (402) 
-8.6045

>  <Gold.PLP.part.repulsive>  (402) 
0.1456

>  <Gold.Protein.RotatedAtoms>  (402) 


>  <Gold.Protein.RotatedTorsions>  (402) 


>  <Gold.Protein.RotatedWaterAtoms>  (402) 


>  <Gold.Version>  (402) 
5.3.0

>  <PLP.Chemscore.CHOScore>  (402) 


>  <PLP.Chemscore.Hbond>  (402) 


>  <PLP.Chemscore.Internal.Correction>  (402) 


>  <PLP.Chemscore.Metal>  (402) 


>  <PLP.Fitness>  (402) 


>  <PLP.PLP>  (402) 


>  <PLP.ligand.clash>  (402) 


>  <PLP.ligand.torsion>  (402) 


>  <PLP.part.buried>  (402) 


>  <PLP.part.hbond>  (402) 


>  <PLP.part.metal>  (402) 


>  <PLP.part.nonpolar>  (402) 


>  <PLP.part.repulsive>  (402) 


>  <Version>  (402) 


$$$$
402|Compound_203|Compounds_3D_F|sdf|55|dock7|1
     RDKit          3D

 11 10  0  0  0  0  0  0  0  0999 V2000
  -10.1687  -19.0841   11.7971 O   0  0  0  0  0  0  0  0  0  0  0  0
   -9.7577  -17.9286   10.7419 S   0  0  0  0  0  0  0  0  0  0  0  0
   -8.3934  -18.1724   10.3329 O   0  0  0  0  0  0  0  0  0  0  0  0
  -10.8221  -17.7905    9.7743 O   0  0  0  0  0  0  0  0  0  0  0  0
   -9.7556  -16.5361   11.6741 N   0  0  0  0  0  0  0  0  0  0  0  0
   -8.7305  -15.5744   11.5776 C   0  0  0  0  0  0  0  0  0  0  0  0
   -7.7188  -15.8168   10.9222 O   0  0  0  0  0  0  0  0  0  0  0  0
   -8.9626  -14.2666   12.3312 C   0  0  0  0  0  0  0  0  0  0  0  0
  -10.2224  -14.3437   13.1077 N   0  0  0  0  0  0  0  0  0  0  0  0
   -9.0171  -13.1144   11.3136 C   0  0  0  0  0  0  0  0  0  0  0  0
  -10.3019  -13.0946   10.6144 N   0  0  0  0  0  0  0  0  0  0  0  0
  1  2  1  0
  2  3  2  0
  2  4  2  0
  2  5  1  0
  5  6  1  0
  6  7  2  0
  6  8  1  0
  8  9  1  0
  8 10  1  0
 10 11  1  0
M  END
>  <Gold.Gold.Protein.RotatedWaterAtoms>  (403) 


>  <Gold.Id.Protein>  (403) 


>  <Gold.PLP.Chemscore.CHOScore>  (403) 
0.0000

>  <Gold.PLP.Chemscore.Hbond>  (403) 
4.9833

>  <Gold.PLP.Chemscore.Internal.Correction>  (403) 
1.0025

>  <Gold.PLP.Chemscore.Metal>  (403) 
0.0000

>  <Gold.PLP.Fitness>  (403) 
34.1640

>  <Gold.PLP.PLP>  (403) 
-19.6557

>  <Gold.PLP.ligand.clash>  (403) 
0.0000

>  <Gold.PLP.ligand.torsion>  (403) 
0.7220

>  <Gold.PLP.part.buried>  (403) 
-0.1768

>  <Gold.PLP.part.hbond>  (403) 
-7.4565

>  <Gold.PLP.part.metal>  (403) 
0.0000

>  <Gold.PLP.part.nonpolar>  (403) 
-12.0843

>  <Gold.PLP.part.repulsive>  (403) 
0.1501

>  <Gold.Protein.RotatedAtoms>  (403) 


>  <Gold.Protein.RotatedTorsions>  (403) 


>  <Gold.Protein.RotatedWaterAtoms>  (403) 


>  <Gold.Version>  (403) 
5.3.0

>  <PLP.Chemscore.CHOScore>  (403) 


>  <PLP.Chemscore.Hbond>  (403) 


>  <PLP.Chemscore.Internal.Correction>  (403) 


>  <PLP.Chemscore.Metal>  (403) 


>  <PLP.Fitness>  (403) 


>  <PLP.PLP>  (403) 


>  <PLP.ligand.clash>  (403) 


>  <PLP.ligand.torsion>  (403) 


>  <PLP.part.buried>  (403) 


>  <PLP.part.hbond>  (403) 


>  <PLP.part.metal>  (403) 


>  <PLP.part.nonpolar>  (403) 


>  <PLP.part.repulsive>  (403) 


>  <Version>  (403) 


$$$$
403|Compound_203|Compounds_3D_F|sdf|55|dock8|1
     RDKit          3D

 11 10  0  0  0  0  0  0  0  0999 V2000
  -10.0036  -15.3162   12.4988 O   0  0  0  0  0  0  0  0  0  0  0  0
   -9.0382  -16.1426   11.4973 S   0  0  0  0  0  0  0  0  0  0  0  0
   -9.4545  -17.5260   11.5280 O   0  0  0  0  0  0  0  0  0  0  0  0
   -8.9342  -15.4134   10.2540 O   0  0  0  0  0  0  0  0  0  0  0  0
   -7.5411  -16.0576   12.2451 N   0  0  0  0  0  0  0  0  0  0  0  0
   -6.3675  -15.7408   11.5329 C   0  0  0  0  0  0  0  0  0  0  0  0
   -6.3895  -15.6826   10.3048 O   0  0  0  0  0  0  0  0  0  0  0  0
   -5.1160  -15.4978   12.3735 C   0  0  0  0  0  0  0  0  0  0  0  0
   -4.5924  -14.1341   12.1241 N   0  0  0  0  0  0  0  0  0  0  0  0
   -4.0653  -16.5615   12.0120 C   0  0  0  0  0  0  0  0  0  0  0  0
   -3.4510  -16.2707   10.7166 N   0  0  0  0  0  0  0  0  0  0  0  0
  1  2  1  0
  2  3  2  0
  2  4  2  0
  2  5  1  0
  5  6  1  0
  6  7  2  0
  6  8  1  0
  8  9  1  0
  8 10  1  0
 10 11  1  0
M  END
>  <Gold.Gold.Protein.RotatedWaterAtoms>  (404) 


>  <Gold.Id.Protein>  (404) 


>  <Gold.PLP.Chemscore.CHOScore>  (404) 
0.0000

>  <Gold.PLP.Chemscore.Hbond>  (404) 
4.0000

>  <Gold.PLP.Chemscore.Internal.Correction>  (404) 
1.0025

>  <Gold.PLP.Chemscore.Metal>  (404) 
0.0000

>  <Gold.PLP.Fitness>  (404) 
33.7506

>  <Gold.PLP.PLP>  (404) 
-22.0825

>  <Gold.PLP.ligand.clash>  (404) 
0.0000

>  <Gold.PLP.ligand.torsion>  (404) 
0.6672

>  <Gold.PLP.part.buried>  (404) 
-4.7793

>  <Gold.PLP.part.hbond>  (404) 
-6.3540

>  <Gold.PLP.part.metal>  (404) 
0.0000

>  <Gold.PLP.part.nonpolar>  (404) 
-10.8029

>  <Gold.PLP.part.repulsive>  (404) 
0.2721

>  <Gold.Protein.RotatedAtoms>  (404) 


>  <Gold.Protein.RotatedTorsions>  (404) 


>  <Gold.Protein.RotatedWaterAtoms>  (404) 


>  <Gold.Version>  (404) 
5.3.0

>  <PLP.Chemscore.CHOScore>  (404) 


>  <PLP.Chemscore.Hbond>  (404) 


>  <PLP.Chemscore.Internal.Correction>  (404) 


>  <PLP.Chemscore.Metal>  (404) 


>  <PLP.Fitness>  (404) 


>  <PLP.PLP>  (404) 


>  <PLP.ligand.clash>  (404) 


>  <PLP.ligand.torsion>  (404) 


>  <PLP.part.buried>  (404) 


>  <PLP.part.hbond>  (404) 


>  <PLP.part.metal>  (404) 


>  <PLP.part.nonpolar>  (404) 


>  <PLP.part.repulsive>  (404) 


>  <Version>  (404) 


$$$$
404|Compound_203|Compounds_3D_F|sdf|55|dock9|1
     RDKit          3D

 11 10  0  0  0  0  0  0  0  0999 V2000
   -5.4969  -15.1972    8.0275 O   0  0  0  0  0  0  0  0  0  0  0  0
   -6.8038  -16.0649    8.4236 S   0  0  0  0  0  0  0  0  0  0  0  0
   -7.8236  -15.7990    7.4350 O   0  0  0  0  0  0  0  0  0  0  0  0
   -6.3840  -17.4131    8.7308 O   0  0  0  0  0  0  0  0  0  0  0  0
   -7.3107  -15.3673    9.8603 N   0  0  0  0  0  0  0  0  0  0  0  0
   -8.5016  -15.7609   10.5022 C   0  0  0  0  0  0  0  0  0  0  0  0
   -9.2881  -16.5145    9.9319 O   0  0  0  0  0  0  0  0  0  0  0  0
   -8.7322  -15.1900   11.8997 C   0  0  0  0  0  0  0  0  0  0  0  0
   -9.9395  -15.7995   12.5053 N   0  0  0  0  0  0  0  0  0  0  0  0
   -8.8872  -13.6636   11.7890 C   0  0  0  0  0  0  0  0  0  0  0  0
  -10.0296  -13.3137   10.9450 N   0  0  0  0  0  0  0  0  0  0  0  0
  1  2  1  0
  2  3  2  0
  2  4  2  0
  2  5  1  0
  5  6  1  0
  6  7  2  0
  6  8  1  0
  8  9  1  0
  8 10  1  0
 10 11  1  0
M  END
>  <Gold.Gold.Protein.RotatedWaterAtoms>  (405) 


>  <Gold.Id.Protein>  (405) 


>  <Gold.PLP.Chemscore.CHOScore>  (405) 
0.0000

>  <Gold.PLP.Chemscore.Hbond>  (405) 
5.0250

>  <Gold.PLP.Chemscore.Internal.Correction>  (405) 
1.0025

>  <Gold.PLP.Chemscore.Metal>  (405) 
0.0000

>  <Gold.PLP.Fitness>  (405) 
35.5039

>  <Gold.PLP.PLP>  (405) 
-20.8000

>  <Gold.PLP.ligand.clash>  (405) 
0.0000

>  <Gold.PLP.ligand.torsion>  (405) 
0.6867

>  <Gold.PLP.part.buried>  (405) 
-3.4647

>  <Gold.PLP.part.hbond>  (405) 
-7.4545

>  <Gold.PLP.part.metal>  (405) 
0.0000

>  <Gold.PLP.part.nonpolar>  (405) 
-9.9387

>  <Gold.PLP.part.repulsive>  (405) 
0.3632

>  <Gold.Protein.RotatedAtoms>  (405) 


>  <Gold.Protein.RotatedTorsions>  (405) 


>  <Gold.Protein.RotatedWaterAtoms>  (405) 


>  <Gold.Version>  (405) 
5.3.0

>  <PLP.Chemscore.CHOScore>  (405) 


>  <PLP.Chemscore.Hbond>  (405) 


>  <PLP.Chemscore.Internal.Correction>  (405) 


>  <PLP.Chemscore.Metal>  (405) 


>  <PLP.Fitness>  (405) 


>  <PLP.PLP>  (405) 


>  <PLP.ligand.clash>  (405) 


>  <PLP.ligand.torsion>  (405) 


>  <PLP.part.buried>  (405) 


>  <PLP.part.hbond>  (405) 


>  <PLP.part.metal>  (405) 


>  <PLP.part.nonpolar>  (405) 


>  <PLP.part.repulsive>  (405) 


>  <Version>  (405) 


$$$$
405|Compound_236|Compounds_3D_F|sdf|56|dock1|1
     RDKit          3D

 11 10  0  0  0  0  0  0  0  0999 V2000
   -6.7430   -9.8678   11.5936 N   0  0  0  0  0  0  0  0  0  0  0  0
   -6.7710  -11.0041   12.5183 C   0  0  0  0  0  0  0  0  0  0  0  0
   -5.6809  -12.0426   12.1993 C   0  0  0  0  0  0  0  0  0  0  0  0
   -4.5393  -11.9870   13.1582 N   0  0  0  0  0  0  0  0  0  0  0  0
   -6.2821  -13.4532   12.1938 C   0  0  0  0  0  0  0  0  0  0  0  0
   -7.4198  -13.7057   12.5642 O   0  0  0  0  0  0  0  0  0  0  0  0
   -5.4042  -14.4242   11.6626 N   0  0  0  0  0  0  0  0  0  0  0  0
   -5.6346  -16.0683   11.6344 S   0  0  0  0  0  0  0  0  0  0  0  0
   -6.4795  -16.3852   12.7675 O   0  0  0  0  0  0  0  0  0  0  0  0
   -6.0003  -16.4843   10.2977 O   0  0  0  0  0  0  0  0  0  0  0  0
   -4.0014  -16.6715   11.9991 C   0  0  0  0  0  0  0  0  0  0  0  0
  1  2  1  0
  2  3  1  0
  3  4  1  0
  3  5  1  0
  5  6  2  0
  5  7  1  0
  7  8  1  0
  8  9  2  0
  8 10  2  0
  8 11  1  0
M  END
>  <Gold.Gold.Protein.RotatedWaterAtoms>  (406) 


>  <Gold.Id.Protein>  (406) 


>  <Gold.PLP.Chemscore.CHOScore>  (406) 
0.0000

>  <Gold.PLP.Chemscore.Hbond>  (406) 
3.8154

>  <Gold.PLP.Chemscore.Internal.Correction>  (406) 
1.0223

>  <Gold.PLP.Chemscore.Metal>  (406) 
0.0000

>  <Gold.PLP.Fitness>  (406) 
35.7274

>  <Gold.PLP.PLP>  (406) 
-26.0009

>  <Gold.PLP.ligand.clash>  (406) 
0.0000

>  <Gold.PLP.ligand.torsion>  (406) 
1.3710

>  <Gold.PLP.part.buried>  (406) 
-5.7351

>  <Gold.PLP.part.hbond>  (406) 
-5.9556

>  <Gold.PLP.part.metal>  (406) 
0.0000

>  <Gold.PLP.part.nonpolar>  (406) 
-14.6490

>  <Gold.PLP.part.repulsive>  (406) 
0.3288

>  <Gold.Protein.RotatedAtoms>  (406) 


>  <Gold.Protein.RotatedTorsions>  (406) 


>  <Gold.Protein.RotatedWaterAtoms>  (406) 


>  <Gold.Version>  (406) 
5.3.0

>  <PLP.Chemscore.CHOScore>  (406) 


>  <PLP.Chemscore.Hbond>  (406) 


>  <PLP.Chemscore.Internal.Correction>  (406) 


>  <PLP.Chemscore.Metal>  (406) 


>  <PLP.Fitness>  (406) 


>  <PLP.PLP>  (406) 


>  <PLP.ligand.clash>  (406) 


>  <PLP.ligand.torsion>  (406) 


>  <PLP.part.buried>  (406) 


>  <PLP.part.hbond>  (406) 


>  <PLP.part.metal>  (406) 


>  <PLP.part.nonpolar>  (406) 


>  <PLP.part.repulsive>  (406) 


>  <Version>  (406) 


$$$$
406|Compound_236|Compounds_3D_F|sdf|56|dock2|1
     RDKit          3D

 11 10  0  0  0  0  0  0  0  0999 V2000
   -4.8586  -12.6962   13.1605 N   0  0  0  0  0  0  0  0  0  0  0  0
   -6.0947  -13.4706   13.0208 C   0  0  0  0  0  0  0  0  0  0  0  0
   -6.2275  -14.1107   11.6275 C   0  0  0  0  0  0  0  0  0  0  0  0
   -5.1580  -15.1144   11.3545 N   0  0  0  0  0  0  0  0  0  0  0  0
   -7.6040  -14.7699   11.4794 C   0  0  0  0  0  0  0  0  0  0  0  0
   -8.6583  -14.1954   11.7114 O   0  0  0  0  0  0  0  0  0  0  0  0
   -7.5313  -16.0938   10.9921 N   0  0  0  0  0  0  0  0  0  0  0  0
   -8.7841  -17.1741   10.8481 S   0  0  0  0  0  0  0  0  0  0  0  0
   -8.2082  -18.4948   10.9972 O   0  0  0  0  0  0  0  0  0  0  0  0
   -9.8892  -16.7492   11.6797 O   0  0  0  0  0  0  0  0  0  0  0  0
   -9.2397  -16.9784    9.1398 C   0  0  0  0  0  0  0  0  0  0  0  0
  1  2  1  0
  2  3  1  0
  3  4  1  0
  3  5  1  0
  5  6  2  0
  5  7  1  0
  7  8  1  0
  8  9  2  0
  8 10  2  0
  8 11  1  0
M  END
>  <Gold.Gold.Protein.RotatedWaterAtoms>  (407) 


>  <Gold.Id.Protein>  (407) 


>  <Gold.PLP.Chemscore.CHOScore>  (407) 
0.0000

>  <Gold.PLP.Chemscore.Hbond>  (407) 
3.7522

>  <Gold.PLP.Chemscore.Internal.Correction>  (407) 
1.0223

>  <Gold.PLP.Chemscore.Metal>  (407) 
0.0000

>  <Gold.PLP.Fitness>  (407) 
32.6166

>  <Gold.PLP.PLP>  (407) 
-21.5859

>  <Gold.PLP.ligand.clash>  (407) 
0.0000

>  <Gold.PLP.ligand.torsion>  (407) 
0.6240

>  <Gold.PLP.part.buried>  (407) 
-5.9734

>  <Gold.PLP.part.hbond>  (407) 
-4.4483

>  <Gold.PLP.part.metal>  (407) 
0.0000

>  <Gold.PLP.part.nonpolar>  (407) 
-12.3555

>  <Gold.PLP.part.repulsive>  (407) 
0.1789

>  <Gold.Protein.RotatedAtoms>  (407) 


>  <Gold.Protein.RotatedTorsions>  (407) 


>  <Gold.Protein.RotatedWaterAtoms>  (407) 


>  <Gold.Version>  (407) 
5.3.0

>  <PLP.Chemscore.CHOScore>  (407) 


>  <PLP.Chemscore.Hbond>  (407) 


>  <PLP.Chemscore.Internal.Correction>  (407) 


>  <PLP.Chemscore.Metal>  (407) 


>  <PLP.Fitness>  (407) 


>  <PLP.PLP>  (407) 


>  <PLP.ligand.clash>  (407) 


>  <PLP.ligand.torsion>  (407) 


>  <PLP.part.buried>  (407) 


>  <PLP.part.hbond>  (407) 


>  <PLP.part.metal>  (407) 


>  <PLP.part.nonpolar>  (407) 


>  <PLP.part.repulsive>  (407) 


>  <Version>  (407) 


$$$$
407|Compound_236|Compounds_3D_F|sdf|56|dock3|1
     RDKit          3D

 11 10  0  0  0  0  0  0  0  0999 V2000
   -6.6718  -10.1460   11.7693 N   0  0  0  0  0  0  0  0  0  0  0  0
   -6.8400  -11.4830   12.3451 C   0  0  0  0  0  0  0  0  0  0  0  0
   -5.5633  -12.3341   12.2258 C   0  0  0  0  0  0  0  0  0  0  0  0
   -4.6468  -12.1574   13.3897 N   0  0  0  0  0  0  0  0  0  0  0  0
   -5.9296  -13.8157   12.0775 C   0  0  0  0  0  0  0  0  0  0  0  0
   -7.0794  -14.2242   11.9981 O   0  0  0  0  0  0  0  0  0  0  0  0
   -4.7981  -14.6564   11.9851 N   0  0  0  0  0  0  0  0  0  0  0  0
   -4.7873  -16.3167   11.9726 S   0  0  0  0  0  0  0  0  0  0  0  0
   -3.4150  -16.7213   12.1997 O   0  0  0  0  0  0  0  0  0  0  0  0
   -5.8555  -16.8153   12.8115 O   0  0  0  0  0  0  0  0  0  0  0  0
   -5.1758  -16.6711   10.2733 C   0  0  0  0  0  0  0  0  0  0  0  0
  1  2  1  0
  2  3  1  0
  3  4  1  0
  3  5  1  0
  5  6  2  0
  5  7  1  0
  7  8  1  0
  8  9  2  0
  8 10  2  0
  8 11  1  0
M  END
>  <Gold.Gold.Protein.RotatedWaterAtoms>  (408) 


>  <Gold.Id.Protein>  (408) 


>  <Gold.PLP.Chemscore.CHOScore>  (408) 
0.0000

>  <Gold.PLP.Chemscore.Hbond>  (408) 
3.5680

>  <Gold.PLP.Chemscore.Internal.Correction>  (408) 
1.0220

>  <Gold.PLP.Chemscore.Metal>  (408) 
0.0000

>  <Gold.PLP.Fitness>  (408) 
36.2714

>  <Gold.PLP.PLP>  (408) 
-26.4142

>  <Gold.PLP.ligand.clash>  (408) 
0.0000

>  <Gold.PLP.ligand.torsion>  (408) 
0.9344

>  <Gold.PLP.part.buried>  (408) 
-7.2091

>  <Gold.PLP.part.hbond>  (408) 
-5.9875

>  <Gold.PLP.part.metal>  (408) 
0.0000

>  <Gold.PLP.part.nonpolar>  (408) 
-14.2017

>  <Gold.PLP.part.repulsive>  (408) 
0.3954

>  <Gold.Protein.RotatedAtoms>  (408) 


>  <Gold.Protein.RotatedTorsions>  (408) 


>  <Gold.Protein.RotatedWaterAtoms>  (408) 


>  <Gold.Version>  (408) 
5.3.0

>  <PLP.Chemscore.CHOScore>  (408) 


>  <PLP.Chemscore.Hbond>  (408) 


>  <PLP.Chemscore.Internal.Correction>  (408) 


>  <PLP.Chemscore.Metal>  (408) 


>  <PLP.Fitness>  (408) 


>  <PLP.PLP>  (408) 


>  <PLP.ligand.clash>  (408) 


>  <PLP.ligand.torsion>  (408) 


>  <PLP.part.buried>  (408) 


>  <PLP.part.hbond>  (408) 


>  <PLP.part.metal>  (408) 


>  <PLP.part.nonpolar>  (408) 


>  <PLP.part.repulsive>  (408) 


>  <Version>  (408) 


$$$$
408|Compound_236|Compounds_3D_F|sdf|56|dock4|1
     RDKit          3D

 11 10  0  0  0  0  0  0  0  0999 V2000
   -7.6365  -12.1990   12.1247 N   0  0  0  0  0  0  0  0  0  0  0  0
   -8.2090  -13.2617   11.2940 C   0  0  0  0  0  0  0  0  0  0  0  0
   -8.7911  -14.4107   12.1363 C   0  0  0  0  0  0  0  0  0  0  0  0
   -9.9984  -13.9985   12.9099 N   0  0  0  0  0  0  0  0  0  0  0  0
   -9.1374  -15.6019   11.2351 C   0  0  0  0  0  0  0  0  0  0  0  0
   -8.9066  -15.6323   10.0346 O   0  0  0  0  0  0  0  0  0  0  0  0
   -9.6999  -16.6854   11.9459 N   0  0  0  0  0  0  0  0  0  0  0  0
  -10.3404  -18.0756   11.3025 S   0  0  0  0  0  0  0  0  0  0  0  0
  -11.0208  -18.7554   12.3856 O   0  0  0  0  0  0  0  0  0  0  0  0
  -11.0330  -17.7661   10.0705 O   0  0  0  0  0  0  0  0  0  0  0  0
   -8.8752  -19.0094   10.9210 C   0  0  0  0  0  0  0  0  0  0  0  0
  1  2  1  0
  2  3  1  0
  3  4  1  0
  3  5  1  0
  5  6  2  0
  5  7  1  0
  7  8  1  0
  8  9  2  0
  8 10  2  0
  8 11  1  0
M  END
>  <Gold.Gold.Protein.RotatedWaterAtoms>  (409) 


>  <Gold.Id.Protein>  (409) 


>  <Gold.PLP.Chemscore.CHOScore>  (409) 
0.0000

>  <Gold.PLP.Chemscore.Hbond>  (409) 
4.0000

>  <Gold.PLP.Chemscore.Internal.Correction>  (409) 
1.0220

>  <Gold.PLP.Chemscore.Metal>  (409) 
0.0000

>  <Gold.PLP.Fitness>  (409) 
33.0068

>  <Gold.PLP.PLP>  (409) 
-21.1902

>  <Gold.PLP.ligand.clash>  (409) 
0.0000

>  <Gold.PLP.ligand.torsion>  (409) 
0.6027

>  <Gold.PLP.part.buried>  (409) 
-2.1555

>  <Gold.PLP.part.hbond>  (409) 
-6.9286

>  <Gold.PLP.part.metal>  (409) 
0.0000

>  <Gold.PLP.part.nonpolar>  (409) 
-12.9529

>  <Gold.PLP.part.repulsive>  (409) 
0.2378

>  <Gold.Protein.RotatedAtoms>  (409) 


>  <Gold.Protein.RotatedTorsions>  (409) 


>  <Gold.Protein.RotatedWaterAtoms>  (409) 


>  <Gold.Version>  (409) 
5.3.0

>  <PLP.Chemscore.CHOScore>  (409) 


>  <PLP.Chemscore.Hbond>  (409) 


>  <PLP.Chemscore.Internal.Correction>  (409) 


>  <PLP.Chemscore.Metal>  (409) 


>  <PLP.Fitness>  (409) 


>  <PLP.PLP>  (409) 


>  <PLP.ligand.clash>  (409) 


>  <PLP.ligand.torsion>  (409) 


>  <PLP.part.buried>  (409) 


>  <PLP.part.hbond>  (409) 


>  <PLP.part.metal>  (409) 


>  <PLP.part.nonpolar>  (409) 


>  <PLP.part.repulsive>  (409) 


>  <Version>  (409) 


$$$$
409|Compound_236|Compounds_3D_F|sdf|56|dock5|1
     RDKit          3D

 11 10  0  0  0  0  0  0  0  0999 V2000
   -7.3645  -10.3985   11.5375 N   0  0  0  0  0  0  0  0  0  0  0  0
   -6.4794  -10.8024   12.6333 C   0  0  0  0  0  0  0  0  0  0  0  0
   -5.5684  -11.9799   12.2432 C   0  0  0  0  0  0  0  0  0  0  0  0
   -4.5371  -12.2737   13.2804 N   0  0  0  0  0  0  0  0  0  0  0  0
   -6.4110  -13.2345   11.9831 C   0  0  0  0  0  0  0  0  0  0  0  0
   -7.5920  -13.3314   12.2850 O   0  0  0  0  0  0  0  0  0  0  0  0
   -5.6961  -14.2477   11.3064 N   0  0  0  0  0  0  0  0  0  0  0  0
   -6.2148  -15.7930   10.9898 S   0  0  0  0  0  0  0  0  0  0  0  0
   -5.0880  -16.6663   11.2463 O   0  0  0  0  0  0  0  0  0  0  0  0
   -7.4897  -16.0189   11.6356 O   0  0  0  0  0  0  0  0  0  0  0  0
   -6.4619  -15.7409    9.2290 C   0  0  0  0  0  0  0  0  0  0  0  0
  1  2  1  0
  2  3  1  0
  3  4  1  0
  3  5  1  0
  5  6  2  0
  5  7  1  0
  7  8  1  0
  8  9  2  0
  8 10  2  0
  8 11  1  0
M  END
>  <Gold.Gold.Protein.RotatedWaterAtoms>  (410) 


>  <Gold.Id.Protein>  (410) 


>  <Gold.PLP.Chemscore.CHOScore>  (410) 
0.0000

>  <Gold.PLP.Chemscore.Hbond>  (410) 
3.9913

>  <Gold.PLP.Chemscore.Internal.Correction>  (410) 
1.0220

>  <Gold.PLP.Chemscore.Metal>  (410) 
0.0000

>  <Gold.PLP.Fitness>  (410) 
36.9539

>  <Gold.PLP.PLP>  (410) 
-25.4991

>  <Gold.PLP.ligand.clash>  (410) 
0.0000

>  <Gold.PLP.ligand.torsion>  (410) 
0.7705

>  <Gold.PLP.part.buried>  (410) 
-8.0322

>  <Gold.PLP.part.hbond>  (410) 
-5.0000

>  <Gold.PLP.part.metal>  (410) 
0.0000

>  <Gold.PLP.part.nonpolar>  (410) 
-13.5811

>  <Gold.PLP.part.repulsive>  (410) 
0.6068

>  <Gold.Protein.RotatedAtoms>  (410) 


>  <Gold.Protein.RotatedTorsions>  (410) 


>  <Gold.Protein.RotatedWaterAtoms>  (410) 


>  <Gold.Version>  (410) 
5.3.0

>  <PLP.Chemscore.CHOScore>  (410) 


>  <PLP.Chemscore.Hbond>  (410) 


>  <PLP.Chemscore.Internal.Correction>  (410) 


>  <PLP.Chemscore.Metal>  (410) 


>  <PLP.Fitness>  (410) 


>  <PLP.PLP>  (410) 


>  <PLP.ligand.clash>  (410) 


>  <PLP.ligand.torsion>  (410) 


>  <PLP.part.buried>  (410) 


>  <PLP.part.hbond>  (410) 


>  <PLP.part.metal>  (410) 


>  <PLP.part.nonpolar>  (410) 


>  <PLP.part.repulsive>  (410) 


>  <Version>  (410) 


$$$$
410|Compound_239|Compounds_3D_F|sdf|57|dock1|1
     RDKit          3D

  6  5  0  0  0  0  0  0  0  0999 V2000
   -4.5845  -12.1863   13.4044 N   0  0  0  0  0  0  0  0  0  0  0  0
   -5.6479  -12.4358   12.4131 C   0  0  0  0  0  0  0  0  0  0  0  0
   -5.9557  -13.9289   12.3162 C   0  0  0  0  0  0  0  0  0  0  0  0
   -7.1010  -14.3666   12.3818 O   0  0  0  0  0  0  0  0  0  0  0  0
   -4.8222  -14.7044   12.1998 N   0  0  0  0  0  0  0  0  0  0  0  0
   -4.8276  -16.1408   12.1307 C   0  0  0  0  0  0  0  0  0  0  0  0
  1  2  1  0
  2  3  1  0
  3  4  2  0
  3  5  1  0
  5  6  1  0
M  END
>  <Gold.Gold.Protein.RotatedWaterAtoms>  (411) 


>  <Gold.Id.Protein>  (411) 


>  <Gold.PLP.Chemscore.CHOScore>  (411) 
0.0000

>  <Gold.PLP.Chemscore.Hbond>  (411) 
2.9913

>  <Gold.PLP.Chemscore.Internal.Correction>  (411) 
0.0025

>  <Gold.PLP.Chemscore.Metal>  (411) 
0.0000

>  <Gold.PLP.Fitness>  (411) 
30.1009

>  <Gold.PLP.PLP>  (411) 
-21.3511

>  <Gold.PLP.ligand.clash>  (411) 
0.0000

>  <Gold.PLP.ligand.torsion>  (411) 
0.1132

>  <Gold.PLP.part.buried>  (411) 
-5.1401

>  <Gold.PLP.part.hbond>  (411) 
-5.0000

>  <Gold.PLP.part.metal>  (411) 
0.0000

>  <Gold.PLP.part.nonpolar>  (411) 
-11.6286

>  <Gold.PLP.part.repulsive>  (411) 
0.2183

>  <Gold.Protein.RotatedAtoms>  (411) 


>  <Gold.Protein.RotatedTorsions>  (411) 


>  <Gold.Protein.RotatedWaterAtoms>  (411) 


>  <Gold.Version>  (411) 
5.3.0

>  <PLP.Chemscore.CHOScore>  (411) 


>  <PLP.Chemscore.Hbond>  (411) 


>  <PLP.Chemscore.Internal.Correction>  (411) 


>  <PLP.Chemscore.Metal>  (411) 


>  <PLP.Fitness>  (411) 


>  <PLP.PLP>  (411) 


>  <PLP.ligand.clash>  (411) 


>  <PLP.ligand.torsion>  (411) 


>  <PLP.part.buried>  (411) 


>  <PLP.part.hbond>  (411) 


>  <PLP.part.metal>  (411) 


>  <PLP.part.nonpolar>  (411) 


>  <PLP.part.repulsive>  (411) 


>  <Version>  (411) 


$$$$
411|Compound_239|Compounds_3D_F|sdf|57|dock2|1
     RDKit          3D

  6  5  0  0  0  0  0  0  0  0999 V2000
   -4.6968  -12.5521   13.1643 N   0  0  0  0  0  0  0  0  0  0  0  0
   -5.9413  -12.9789   12.4975 C   0  0  0  0  0  0  0  0  0  0  0  0
   -5.8791  -14.4622   12.1375 C   0  0  0  0  0  0  0  0  0  0  0  0
   -6.8859  -15.1154   11.8781 O   0  0  0  0  0  0  0  0  0  0  0  0
   -4.6001  -14.9734   12.1863 N   0  0  0  0  0  0  0  0  0  0  0  0
   -4.2677  -16.3490   11.9304 C   0  0  0  0  0  0  0  0  0  0  0  0
  1  2  1  0
  2  3  1  0
  3  4  2  0
  3  5  1  0
  5  6  1  0
M  END
>  <Gold.Gold.Protein.RotatedWaterAtoms>  (412) 


>  <Gold.Id.Protein>  (412) 


>  <Gold.PLP.Chemscore.CHOScore>  (412) 
0.0000

>  <Gold.PLP.Chemscore.Hbond>  (412) 
3.0000

>  <Gold.PLP.Chemscore.Internal.Correction>  (412) 
0.0025

>  <Gold.PLP.Chemscore.Metal>  (412) 
0.0000

>  <Gold.PLP.Fitness>  (412) 
28.9373

>  <Gold.PLP.PLP>  (412) 
-20.3803

>  <Gold.PLP.ligand.clash>  (412) 
0.0000

>  <Gold.PLP.ligand.torsion>  (412) 
0.2227

>  <Gold.PLP.part.buried>  (412) 
-4.7364

>  <Gold.PLP.part.hbond>  (412) 
-5.0000

>  <Gold.PLP.part.metal>  (412) 
0.0000

>  <Gold.PLP.part.nonpolar>  (412) 
-10.8291

>  <Gold.PLP.part.repulsive>  (412) 
0.1889

>  <Gold.Protein.RotatedAtoms>  (412) 


>  <Gold.Protein.RotatedTorsions>  (412) 


>  <Gold.Protein.RotatedWaterAtoms>  (412) 


>  <Gold.Version>  (412) 
5.3.0

>  <PLP.Chemscore.CHOScore>  (412) 


>  <PLP.Chemscore.Hbond>  (412) 


>  <PLP.Chemscore.Internal.Correction>  (412) 


>  <PLP.Chemscore.Metal>  (412) 


>  <PLP.Fitness>  (412) 


>  <PLP.PLP>  (412) 


>  <PLP.ligand.clash>  (412) 


>  <PLP.ligand.torsion>  (412) 


>  <PLP.part.buried>  (412) 


>  <PLP.part.hbond>  (412) 


>  <PLP.part.metal>  (412) 


>  <PLP.part.nonpolar>  (412) 


>  <PLP.part.repulsive>  (412) 


>  <Version>  (412) 


$$$$
412|Compound_239|Compounds_3D_F|sdf|57|dock3|1
     RDKit          3D

  6  5  0  0  0  0  0  0  0  0999 V2000
   -4.5995  -12.2015   13.4096 N   0  0  0  0  0  0  0  0  0  0  0  0
   -5.6528  -12.5034   12.4222 C   0  0  0  0  0  0  0  0  0  0  0  0
   -5.9075  -14.0078   12.3479 C   0  0  0  0  0  0  0  0  0  0  0  0
   -7.0316  -14.4878   12.4638 O   0  0  0  0  0  0  0  0  0  0  0  0
   -4.7512  -14.7410   12.1895 N   0  0  0  0  0  0  0  0  0  0  0  0
   -4.7049  -16.1771   12.1299 C   0  0  0  0  0  0  0  0  0  0  0  0
  1  2  1  0
  2  3  1  0
  3  4  2  0
  3  5  1  0
  5  6  1  0
M  END
>  <Gold.Gold.Protein.RotatedWaterAtoms>  (413) 


>  <Gold.Id.Protein>  (413) 


>  <Gold.PLP.Chemscore.CHOScore>  (413) 
0.0000

>  <Gold.PLP.Chemscore.Hbond>  (413) 
3.0000

>  <Gold.PLP.Chemscore.Internal.Correction>  (413) 
0.0025

>  <Gold.PLP.Chemscore.Metal>  (413) 
0.0000

>  <Gold.PLP.Fitness>  (413) 
30.3585

>  <Gold.PLP.PLP>  (413) 
-21.5021

>  <Gold.PLP.ligand.clash>  (413) 
0.0000

>  <Gold.PLP.ligand.torsion>  (413) 
0.0731

>  <Gold.PLP.part.buried>  (413) 
-5.1474

>  <Gold.PLP.part.hbond>  (413) 
-5.0000

>  <Gold.PLP.part.metal>  (413) 
0.0000

>  <Gold.PLP.part.nonpolar>  (413) 
-11.7768

>  <Gold.PLP.part.repulsive>  (413) 
0.2285

>  <Gold.Protein.RotatedAtoms>  (413) 


>  <Gold.Protein.RotatedTorsions>  (413) 


>  <Gold.Protein.RotatedWaterAtoms>  (413) 


>  <Gold.Version>  (413) 
5.3.0

>  <PLP.Chemscore.CHOScore>  (413) 


>  <PLP.Chemscore.Hbond>  (413) 


>  <PLP.Chemscore.Internal.Correction>  (413) 


>  <PLP.Chemscore.Metal>  (413) 


>  <PLP.Fitness>  (413) 


>  <PLP.PLP>  (413) 


>  <PLP.ligand.clash>  (413) 


>  <PLP.ligand.torsion>  (413) 


>  <PLP.part.buried>  (413) 


>  <PLP.part.hbond>  (413) 


>  <PLP.part.metal>  (413) 


>  <PLP.part.nonpolar>  (413) 


>  <PLP.part.repulsive>  (413) 


>  <Version>  (413) 


$$$$
413|Compound_240|Compounds_3D_F|sdf|58|dock1|1
     RDKit          3D

 10  9  0  0  0  0  0  0  0  0999 V2000
   -5.3456  -15.2001    8.9792 O   0  0  0  0  0  0  0  0  0  0  0  0
   -6.2382  -15.7818    9.9214 C   0  0  0  0  0  0  0  0  0  0  0  0
   -5.6574  -15.7726   11.3600 C   0  0  0  0  0  0  0  0  0  0  0  0
   -5.3732  -14.3761   11.7338 N   0  0  0  0  0  0  0  0  0  0  0  0
   -6.2790  -13.4414   12.1924 C   0  0  0  0  0  0  0  0  0  0  0  0
   -7.4788  -13.6310   12.3575 O   0  0  0  0  0  0  0  0  0  0  0  0
   -5.6307  -12.0779   12.4349 C   0  0  0  0  0  0  0  0  0  0  0  0
   -4.5064  -12.2021   13.3833 N   0  0  0  0  0  0  0  0  0  0  0  0
   -6.6863  -16.3889   12.3241 C   0  0  0  0  0  0  0  0  0  0  0  0
   -4.3651  -16.6070   11.3889 C   0  0  0  0  0  0  0  0  0  0  0  0
  1  2  1  0
  2  3  1  0
  3  4  1  0
  3  9  1  0
  3 10  1  0
  4  5  1  0
  5  6  2  0
  5  7  1  0
  7  8  1  0
M  END
>  <Gold.Gold.Protein.RotatedWaterAtoms>  (414) 


>  <Gold.Id.Protein>  (414) 


>  <Gold.PLP.Chemscore.CHOScore>  (414) 
0.0000

>  <Gold.PLP.Chemscore.Hbond>  (414) 
3.6094

>  <Gold.PLP.Chemscore.Internal.Correction>  (414) 
0.0050

>  <Gold.PLP.Chemscore.Metal>  (414) 
0.0000

>  <Gold.PLP.Fitness>  (414) 
39.0127

>  <Gold.PLP.PLP>  (414) 
-29.1022

>  <Gold.PLP.ligand.clash>  (414) 
0.0000

>  <Gold.PLP.ligand.torsion>  (414) 
0.4614

>  <Gold.PLP.part.buried>  (414) 
-6.3304

>  <Gold.PLP.part.hbond>  (414) 
-6.0000

>  <Gold.PLP.part.metal>  (414) 
0.0000

>  <Gold.PLP.part.nonpolar>  (414) 
-17.4528

>  <Gold.PLP.part.repulsive>  (414) 
0.1913

>  <Gold.Protein.RotatedAtoms>  (414) 


>  <Gold.Protein.RotatedTorsions>  (414) 


>  <Gold.Protein.RotatedWaterAtoms>  (414) 


>  <Gold.Version>  (414) 
5.3.0

>  <PLP.Chemscore.CHOScore>  (414) 


>  <PLP.Chemscore.Hbond>  (414) 


>  <PLP.Chemscore.Internal.Correction>  (414) 


>  <PLP.Chemscore.Metal>  (414) 


>  <PLP.Fitness>  (414) 


>  <PLP.PLP>  (414) 


>  <PLP.ligand.clash>  (414) 


>  <PLP.ligand.torsion>  (414) 


>  <PLP.part.buried>  (414) 


>  <PLP.part.hbond>  (414) 


>  <PLP.part.metal>  (414) 


>  <PLP.part.nonpolar>  (414) 


>  <PLP.part.repulsive>  (414) 


>  <Version>  (414) 


$$$$
414|Compound_240|Compounds_3D_F|sdf|58|dock2|1
     RDKit          3D

 10  9  0  0  0  0  0  0  0  0999 V2000
   -5.6869  -15.0078    8.8263 O   0  0  0  0  0  0  0  0  0  0  0  0
   -6.5994  -15.4963    9.8018 C   0  0  0  0  0  0  0  0  0  0  0  0
   -5.9454  -15.6227   11.2029 C   0  0  0  0  0  0  0  0  0  0  0  0
   -5.5089  -14.2822   11.6308 N   0  0  0  0  0  0  0  0  0  0  0  0
   -6.2816  -13.3164   12.2430 C   0  0  0  0  0  0  0  0  0  0  0  0
   -7.4696  -13.4254   12.5249 O   0  0  0  0  0  0  0  0  0  0  0  0
   -5.5005  -12.0270   12.4990 C   0  0  0  0  0  0  0  0  0  0  0  0
   -4.3582  -12.2851   13.3975 N   0  0  0  0  0  0  0  0  0  0  0  0
   -6.9766  -16.1939   12.1920 C   0  0  0  0  0  0  0  0  0  0  0  0
   -4.7396  -16.5741   11.1141 C   0  0  0  0  0  0  0  0  0  0  0  0
  1  2  1  0
  2  3  1  0
  3  4  1  0
  3  9  1  0
  3 10  1  0
  4  5  1  0
  5  6  2  0
  5  7  1  0
  7  8  1  0
M  END
>  <Gold.Gold.Protein.RotatedWaterAtoms>  (415) 


>  <Gold.Id.Protein>  (415) 


>  <Gold.PLP.Chemscore.CHOScore>  (415) 
0.0000

>  <Gold.PLP.Chemscore.Hbond>  (415) 
3.4118

>  <Gold.PLP.Chemscore.Internal.Correction>  (415) 
0.0042

>  <Gold.PLP.Chemscore.Metal>  (415) 
0.0000

>  <Gold.PLP.Fitness>  (415) 
37.7750

>  <Gold.PLP.PLP>  (415) 
-28.5520

>  <Gold.PLP.ligand.clash>  (415) 
0.0000

>  <Gold.PLP.ligand.torsion>  (415) 
0.5084

>  <Gold.PLP.part.buried>  (415) 
-6.3721

>  <Gold.PLP.part.hbond>  (415) 
-6.0000

>  <Gold.PLP.part.metal>  (415) 
0.0000

>  <Gold.PLP.part.nonpolar>  (415) 
-16.6871

>  <Gold.PLP.part.repulsive>  (415) 
0.2054

>  <Gold.Protein.RotatedAtoms>  (415) 


>  <Gold.Protein.RotatedTorsions>  (415) 


>  <Gold.Protein.RotatedWaterAtoms>  (415) 


>  <Gold.Version>  (415) 
5.3.0

>  <PLP.Chemscore.CHOScore>  (415) 


>  <PLP.Chemscore.Hbond>  (415) 


>  <PLP.Chemscore.Internal.Correction>  (415) 


>  <PLP.Chemscore.Metal>  (415) 


>  <PLP.Fitness>  (415) 


>  <PLP.PLP>  (415) 


>  <PLP.ligand.clash>  (415) 


>  <PLP.ligand.torsion>  (415) 


>  <PLP.part.buried>  (415) 


>  <PLP.part.hbond>  (415) 


>  <PLP.part.metal>  (415) 


>  <PLP.part.nonpolar>  (415) 


>  <PLP.part.repulsive>  (415) 


>  <Version>  (415) 


$$$$
415|Compound_240|Compounds_3D_F|sdf|58|dock3|1
     RDKit          3D

 10  9  0  0  0  0  0  0  0  0999 V2000
   -4.9235  -15.7120    9.3425 O   0  0  0  0  0  0  0  0  0  0  0  0
   -5.5838  -16.3676   10.4182 C   0  0  0  0  0  0  0  0  0  0  0  0
   -4.8566  -16.1486   11.7710 C   0  0  0  0  0  0  0  0  0  0  0  0
   -4.8275  -14.7023   12.0502 N   0  0  0  0  0  0  0  0  0  0  0  0
   -5.9152  -13.8699   12.2191 C   0  0  0  0  0  0  0  0  0  0  0  0
   -7.0911  -14.2103   12.1572 O   0  0  0  0  0  0  0  0  0  0  0  0
   -5.5010  -12.4157   12.4471 C   0  0  0  0  0  0  0  0  0  0  0  0
   -4.5029  -12.3270   13.5310 N   0  0  0  0  0  0  0  0  0  0  0  0
   -5.6180  -16.8954   12.8804 C   0  0  0  0  0  0  0  0  0  0  0  0
   -3.4248  -16.7024   11.6710 C   0  0  0  0  0  0  0  0  0  0  0  0
  1  2  1  0
  2  3  1  0
  3  4  1  0
  3  9  1  0
  3 10  1  0
  4  5  1  0
  5  6  2  0
  5  7  1  0
  7  8  1  0
M  END
>  <Gold.Gold.Protein.RotatedWaterAtoms>  (416) 


>  <Gold.Id.Protein>  (416) 


>  <Gold.PLP.Chemscore.CHOScore>  (416) 
0.0000

>  <Gold.PLP.Chemscore.Hbond>  (416) 
3.9673

>  <Gold.PLP.Chemscore.Internal.Correction>  (416) 
0.0042

>  <Gold.PLP.Chemscore.Metal>  (416) 
0.0000

>  <Gold.PLP.Fitness>  (416) 
40.2141

>  <Gold.PLP.PLP>  (416) 
-28.4836

>  <Gold.PLP.ligand.clash>  (416) 
0.0000

>  <Gold.PLP.ligand.torsion>  (416) 
0.0877

>  <Gold.PLP.part.buried>  (416) 
-6.2021

>  <Gold.PLP.part.hbond>  (416) 
-5.8428

>  <Gold.PLP.part.metal>  (416) 
0.0000

>  <Gold.PLP.part.nonpolar>  (416) 
-18.4656

>  <Gold.PLP.part.repulsive>  (416) 
0.2113

>  <Gold.Protein.RotatedAtoms>  (416) 


>  <Gold.Protein.RotatedTorsions>  (416) 


>  <Gold.Protein.RotatedWaterAtoms>  (416) 


>  <Gold.Version>  (416) 
5.3.0

>  <PLP.Chemscore.CHOScore>  (416) 


>  <PLP.Chemscore.Hbond>  (416) 


>  <PLP.Chemscore.Internal.Correction>  (416) 


>  <PLP.Chemscore.Metal>  (416) 


>  <PLP.Fitness>  (416) 


>  <PLP.PLP>  (416) 


>  <PLP.ligand.clash>  (416) 


>  <PLP.ligand.torsion>  (416) 


>  <PLP.part.buried>  (416) 


>  <PLP.part.hbond>  (416) 


>  <PLP.part.metal>  (416) 


>  <PLP.part.nonpolar>  (416) 


>  <PLP.part.repulsive>  (416) 


>  <Version>  (416) 


$$$$
416|Compound_241|Compounds_3D_F|sdf|59|dock1|1
     RDKit          3D

  9  8  0  0  0  0  0  0  0  0999 V2000
   -4.3815  -16.2016    9.4939 O   0  0  0  0  0  0  0  0  0  0  0  0
   -5.0994  -16.7018   10.6197 C   0  0  0  0  0  0  0  0  0  0  0  0
   -4.4250  -16.2662   11.9284 C   0  0  0  0  0  0  0  0  0  0  0  0
   -4.5989  -14.8356   12.1287 N   0  0  0  0  0  0  0  0  0  0  0  0
   -5.8025  -14.2220   12.3869 C   0  0  0  0  0  0  0  0  0  0  0  0
   -6.8766  -14.8102   12.4801 O   0  0  0  0  0  0  0  0  0  0  0  0
   -5.6948  -12.7014   12.4931 C   0  0  0  0  0  0  0  0  0  0  0  0
   -4.5990  -12.3144   13.3986 N   0  0  0  0  0  0  0  0  0  0  0  0
   -4.9765  -17.0262   13.1326 C   0  0  0  0  0  0  0  0  0  0  0  0
  1  2  1  0
  2  3  1  0
  3  4  1  0
  3  9  1  0
  4  5  1  0
  5  6  2  0
  5  7  1  0
  7  8  1  0
M  END
>  <Gold.Gold.Protein.RotatedWaterAtoms>  (417) 


>  <Gold.Id.Protein>  (417) 


>  <Gold.PLP.Chemscore.CHOScore>  (417) 
0.0000

>  <Gold.PLP.Chemscore.Hbond>  (417) 
3.9920

>  <Gold.PLP.Chemscore.Internal.Correction>  (417) 
0.0112

>  <Gold.PLP.Chemscore.Metal>  (417) 
0.0000

>  <Gold.PLP.Fitness>  (417) 
38.6342

>  <Gold.PLP.PLP>  (417) 
-27.1044

>  <Gold.PLP.ligand.clash>  (417) 
0.0000

>  <Gold.PLP.ligand.torsion>  (417) 
0.2287

>  <Gold.PLP.part.buried>  (417) 
-6.1614

>  <Gold.PLP.part.hbond>  (417) 
-5.9777

>  <Gold.PLP.part.metal>  (417) 
0.0000

>  <Gold.PLP.part.nonpolar>  (417) 
-15.5175

>  <Gold.PLP.part.repulsive>  (417) 
0.2392

>  <Gold.Protein.RotatedAtoms>  (417) 


>  <Gold.Protein.RotatedTorsions>  (417) 


>  <Gold.Protein.RotatedWaterAtoms>  (417) 


>  <Gold.Version>  (417) 
5.3.0

>  <PLP.Chemscore.CHOScore>  (417) 


>  <PLP.Chemscore.Hbond>  (417) 


>  <PLP.Chemscore.Internal.Correction>  (417) 


>  <PLP.Chemscore.Metal>  (417) 


>  <PLP.Fitness>  (417) 


>  <PLP.PLP>  (417) 


>  <PLP.ligand.clash>  (417) 


>  <PLP.ligand.torsion>  (417) 


>  <PLP.part.buried>  (417) 


>  <PLP.part.hbond>  (417) 


>  <PLP.part.metal>  (417) 


>  <PLP.part.nonpolar>  (417) 


>  <PLP.part.repulsive>  (417) 


>  <Version>  (417) 


$$$$
417|Compound_241|Compounds_3D_F|sdf|59|dock2|1
     RDKit          3D

  9  8  0  0  0  0  0  0  0  0999 V2000
   -5.6059  -15.2346    9.3818 O   0  0  0  0  0  0  0  0  0  0  0  0
   -5.8248  -16.2375   10.3713 C   0  0  0  0  0  0  0  0  0  0  0  0
   -4.8594  -16.0535   11.5508 C   0  0  0  0  0  0  0  0  0  0  0  0
   -4.7846  -14.6485   11.9216 N   0  0  0  0  0  0  0  0  0  0  0  0
   -5.8721  -13.8528   12.1973 C   0  0  0  0  0  0  0  0  0  0  0  0
   -7.0389  -14.2347   12.1641 O   0  0  0  0  0  0  0  0  0  0  0  0
   -5.4981  -12.4023   12.4996 C   0  0  0  0  0  0  0  0  0  0  0  0
   -4.6008  -12.3232   13.6653 N   0  0  0  0  0  0  0  0  0  0  0  0
   -5.2764  -16.8847   12.7619 C   0  0  0  0  0  0  0  0  0  0  0  0
  1  2  1  0
  2  3  1  0
  3  4  1  0
  3  9  1  0
  4  5  1  0
  5  6  2  0
  5  7  1  0
  7  8  1  0
M  END
>  <Gold.Gold.Protein.RotatedWaterAtoms>  (418) 


>  <Gold.Id.Protein>  (418) 


>  <Gold.PLP.Chemscore.CHOScore>  (418) 
0.0000

>  <Gold.PLP.Chemscore.Hbond>  (418) 
4.0000

>  <Gold.PLP.Chemscore.Internal.Correction>  (418) 
0.0112

>  <Gold.PLP.Chemscore.Metal>  (418) 
0.0000

>  <Gold.PLP.Fitness>  (418) 
38.8955

>  <Gold.PLP.PLP>  (418) 
-27.2706

>  <Gold.PLP.ligand.clash>  (418) 
0.0000

>  <Gold.PLP.ligand.torsion>  (418) 
0.1931

>  <Gold.PLP.part.buried>  (418) 
-5.2867

>  <Gold.PLP.part.hbond>  (418) 
-6.9785

>  <Gold.PLP.part.metal>  (418) 
0.0000

>  <Gold.PLP.part.nonpolar>  (418) 
-16.1805

>  <Gold.PLP.part.repulsive>  (418) 
0.2292

>  <Gold.Protein.RotatedAtoms>  (418) 


>  <Gold.Protein.RotatedTorsions>  (418) 


>  <Gold.Protein.RotatedWaterAtoms>  (418) 


>  <Gold.Version>  (418) 
5.3.0

>  <PLP.Chemscore.CHOScore>  (418) 


>  <PLP.Chemscore.Hbond>  (418) 


>  <PLP.Chemscore.Internal.Correction>  (418) 


>  <PLP.Chemscore.Metal>  (418) 


>  <PLP.Fitness>  (418) 


>  <PLP.PLP>  (418) 


>  <PLP.ligand.clash>  (418) 


>  <PLP.ligand.torsion>  (418) 


>  <PLP.part.buried>  (418) 


>  <PLP.part.hbond>  (418) 


>  <PLP.part.metal>  (418) 


>  <PLP.part.nonpolar>  (418) 


>  <PLP.part.repulsive>  (418) 


>  <Version>  (418) 


$$$$
418|Compound_241|Compounds_3D_F|sdf|59|dock3|1
     RDKit          3D

  9  8  0  0  0  0  0  0  0  0999 V2000
   -9.9027  -14.1590   12.7640 O   0  0  0  0  0  0  0  0  0  0  0  0
   -8.9954  -13.5386   11.8559 C   0  0  0  0  0  0  0  0  0  0  0  0
   -7.7432  -13.0452   12.5947 C   0  0  0  0  0  0  0  0  0  0  0  0
   -6.7641  -14.1172   12.6906 N   0  0  0  0  0  0  0  0  0  0  0  0
   -6.1689  -14.7323   11.6140 C   0  0  0  0  0  0  0  0  0  0  0  0
   -6.3930  -14.4487   10.4402 O   0  0  0  0  0  0  0  0  0  0  0  0
   -5.2248  -15.8662   12.0119 C   0  0  0  0  0  0  0  0  0  0  0  0
   -3.8458  -15.5769   11.5816 N   0  0  0  0  0  0  0  0  0  0  0  0
   -7.1166  -11.8349   11.9061 C   0  0  0  0  0  0  0  0  0  0  0  0
  1  2  1  0
  2  3  1  0
  3  4  1  0
  3  9  1  0
  4  5  1  0
  5  6  2  0
  5  7  1  0
  7  8  1  0
M  END
>  <Gold.Gold.Protein.RotatedWaterAtoms>  (419) 


>  <Gold.Id.Protein>  (419) 


>  <Gold.PLP.Chemscore.CHOScore>  (419) 
0.0000

>  <Gold.PLP.Chemscore.Hbond>  (419) 
4.0400

>  <Gold.PLP.Chemscore.Internal.Correction>  (419) 
0.0112

>  <Gold.PLP.Chemscore.Metal>  (419) 
0.0000

>  <Gold.PLP.Fitness>  (419) 
39.4488

>  <Gold.PLP.PLP>  (419) 
-28.0000

>  <Gold.PLP.ligand.clash>  (419) 
0.0000

>  <Gold.PLP.ligand.torsion>  (419) 
0.3412

>  <Gold.PLP.part.buried>  (419) 
-6.6121

>  <Gold.PLP.part.hbond>  (419) 
-5.5688

>  <Gold.PLP.part.metal>  (419) 
0.0000

>  <Gold.PLP.part.nonpolar>  (419) 
-16.8806

>  <Gold.PLP.part.repulsive>  (419) 
0.2733

>  <Gold.Protein.RotatedAtoms>  (419) 


>  <Gold.Protein.RotatedTorsions>  (419) 


>  <Gold.Protein.RotatedWaterAtoms>  (419) 


>  <Gold.Version>  (419) 
5.3.0

>  <PLP.Chemscore.CHOScore>  (419) 


>  <PLP.Chemscore.Hbond>  (419) 


>  <PLP.Chemscore.Internal.Correction>  (419) 


>  <PLP.Chemscore.Metal>  (419) 


>  <PLP.Fitness>  (419) 


>  <PLP.PLP>  (419) 


>  <PLP.ligand.clash>  (419) 


>  <PLP.ligand.torsion>  (419) 


>  <PLP.part.buried>  (419) 


>  <PLP.part.hbond>  (419) 


>  <PLP.part.metal>  (419) 


>  <PLP.part.nonpolar>  (419) 


>  <PLP.part.repulsive>  (419) 


>  <Version>  (419) 


$$$$
419|Compound_241|Compounds_3D_F|sdf|59|dock4|1
     RDKit          3D

  9  8  0  0  0  0  0  0  0  0999 V2000
   -5.7947  -15.1214    8.8978 O   0  0  0  0  0  0  0  0  0  0  0  0
   -6.3937  -15.6944   10.0578 C   0  0  0  0  0  0  0  0  0  0  0  0
   -5.4001  -15.7100   11.2282 C   0  0  0  0  0  0  0  0  0  0  0  0
   -5.1232  -14.3508   11.6673 N   0  0  0  0  0  0  0  0  0  0  0  0
   -6.0625  -13.4878   12.1818 C   0  0  0  0  0  0  0  0  0  0  0  0
   -7.2500  -13.7626   12.3328 O   0  0  0  0  0  0  0  0  0  0  0  0
   -5.4996  -12.1040   12.5033 C   0  0  0  0  0  0  0  0  0  0  0  0
   -4.3354  -12.2060   13.4003 N   0  0  0  0  0  0  0  0  0  0  0  0
   -5.9186  -16.5359   12.4032 C   0  0  0  0  0  0  0  0  0  0  0  0
  1  2  1  0
  2  3  1  0
  3  4  1  0
  3  9  1  0
  4  5  1  0
  5  6  2  0
  5  7  1  0
  7  8  1  0
M  END
>  <Gold.Gold.Protein.RotatedWaterAtoms>  (420) 


>  <Gold.Id.Protein>  (420) 


>  <Gold.PLP.Chemscore.CHOScore>  (420) 
0.0000

>  <Gold.PLP.Chemscore.Hbond>  (420) 
3.3357

>  <Gold.PLP.Chemscore.Internal.Correction>  (420) 
0.0112

>  <Gold.PLP.Chemscore.Metal>  (420) 
0.0000

>  <Gold.PLP.Fitness>  (420) 
36.4869

>  <Gold.PLP.PLP>  (420) 
-26.6448

>  <Gold.PLP.ligand.clash>  (420) 
0.0000

>  <Gold.PLP.ligand.torsion>  (420) 
0.0880

>  <Gold.PLP.part.buried>  (420) 
-5.1642

>  <Gold.PLP.part.hbond>  (420) 
-5.9037

>  <Gold.PLP.part.metal>  (420) 
0.0000

>  <Gold.PLP.part.nonpolar>  (420) 
-15.4540

>  <Gold.PLP.part.repulsive>  (420) 
0.2209

>  <Gold.Protein.RotatedAtoms>  (420) 


>  <Gold.Protein.RotatedTorsions>  (420) 


>  <Gold.Protein.RotatedWaterAtoms>  (420) 


>  <Gold.Version>  (420) 
5.3.0

>  <PLP.Chemscore.CHOScore>  (420) 


>  <PLP.Chemscore.Hbond>  (420) 


>  <PLP.Chemscore.Internal.Correction>  (420) 


>  <PLP.Chemscore.Metal>  (420) 


>  <PLP.Fitness>  (420) 


>  <PLP.PLP>  (420) 


>  <PLP.ligand.clash>  (420) 


>  <PLP.ligand.torsion>  (420) 


>  <PLP.part.buried>  (420) 


>  <PLP.part.hbond>  (420) 


>  <PLP.part.metal>  (420) 


>  <PLP.part.nonpolar>  (420) 


>  <PLP.part.repulsive>  (420) 


>  <Version>  (420) 


$$$$
420|Compound_241|Compounds_3D_F|sdf|59|dock5|1
     RDKit          3D

  9  8  0  0  0  0  0  0  0  0999 V2000
   -5.2730  -15.6478    9.3768 O   0  0  0  0  0  0  0  0  0  0  0  0
   -5.5751  -16.4890   10.4876 C   0  0  0  0  0  0  0  0  0  0  0  0
   -4.6810  -16.1434   11.6869 C   0  0  0  0  0  0  0  0  0  0  0  0
   -4.7147  -14.7109   11.9395 N   0  0  0  0  0  0  0  0  0  0  0  0
   -5.8541  -13.9912   12.2148 C   0  0  0  0  0  0  0  0  0  0  0  0
   -6.9817  -14.4735   12.2811 O   0  0  0  0  0  0  0  0  0  0  0  0
   -5.5980  -12.4936   12.3781 C   0  0  0  0  0  0  0  0  0  0  0  0
   -4.5747  -12.2449   13.4083 N   0  0  0  0  0  0  0  0  0  0  0  0
   -5.1009  -16.8989   12.9456 C   0  0  0  0  0  0  0  0  0  0  0  0
  1  2  1  0
  2  3  1  0
  3  4  1  0
  3  9  1  0
  4  5  1  0
  5  6  2  0
  5  7  1  0
  7  8  1  0
M  END
>  <Gold.Gold.Protein.RotatedWaterAtoms>  (421) 


>  <Gold.Id.Protein>  (421) 


>  <Gold.PLP.Chemscore.CHOScore>  (421) 
0.0000

>  <Gold.PLP.Chemscore.Hbond>  (421) 
4.0000

>  <Gold.PLP.Chemscore.Internal.Correction>  (421) 
0.0112

>  <Gold.PLP.Chemscore.Metal>  (421) 
0.0000

>  <Gold.PLP.Fitness>  (421) 
38.4832

>  <Gold.PLP.PLP>  (421) 
-26.6441

>  <Gold.PLP.ligand.clash>  (421) 
0.0000

>  <Gold.PLP.ligand.torsion>  (421) 
0.0860

>  <Gold.PLP.part.buried>  (421) 
-5.7096

>  <Gold.PLP.part.hbond>  (421) 
-6.0397

>  <Gold.PLP.part.metal>  (421) 
0.0000

>  <Gold.PLP.part.nonpolar>  (421) 
-15.3493

>  <Gold.PLP.part.repulsive>  (421) 
0.2384

>  <Gold.Protein.RotatedAtoms>  (421) 


>  <Gold.Protein.RotatedTorsions>  (421) 


>  <Gold.Protein.RotatedWaterAtoms>  (421) 


>  <Gold.Version>  (421) 
5.3.0

>  <PLP.Chemscore.CHOScore>  (421) 


>  <PLP.Chemscore.Hbond>  (421) 


>  <PLP.Chemscore.Internal.Correction>  (421) 


>  <PLP.Chemscore.Metal>  (421) 


>  <PLP.Fitness>  (421) 


>  <PLP.PLP>  (421) 


>  <PLP.ligand.clash>  (421) 


>  <PLP.ligand.torsion>  (421) 


>  <PLP.part.buried>  (421) 


>  <PLP.part.hbond>  (421) 


>  <PLP.part.metal>  (421) 


>  <PLP.part.nonpolar>  (421) 


>  <PLP.part.repulsive>  (421) 


>  <Version>  (421) 


$$$$
421|Compound_241|Compounds_3D_F|sdf|59|dock6|1
     RDKit          3D

  9  8  0  0  0  0  0  0  0  0999 V2000
   -5.5180  -15.2067    9.3139 O   0  0  0  0  0  0  0  0  0  0  0  0
   -5.9355  -16.0595   10.3774 C   0  0  0  0  0  0  0  0  0  0  0  0
   -4.9945  -15.9216   11.5827 C   0  0  0  0  0  0  0  0  0  0  0  0
   -4.8564  -14.5209   11.9517 N   0  0  0  0  0  0  0  0  0  0  0  0
   -5.9079  -13.6662   12.1872 C   0  0  0  0  0  0  0  0  0  0  0  0
   -7.0920  -13.9844   12.1145 O   0  0  0  0  0  0  0  0  0  0  0  0
   -5.4665  -12.2366   12.4980 C   0  0  0  0  0  0  0  0  0  0  0  0
   -4.6032  -12.2012   13.6913 N   0  0  0  0  0  0  0  0  0  0  0  0
   -5.4876  -16.7249   12.7840 C   0  0  0  0  0  0  0  0  0  0  0  0
  1  2  1  0
  2  3  1  0
  3  4  1  0
  3  9  1  0
  4  5  1  0
  5  6  2  0
  5  7  1  0
  7  8  1  0
M  END
>  <Gold.Gold.Protein.RotatedWaterAtoms>  (422) 


>  <Gold.Id.Protein>  (422) 


>  <Gold.PLP.Chemscore.CHOScore>  (422) 
0.0000

>  <Gold.PLP.Chemscore.Hbond>  (422) 
3.9913

>  <Gold.PLP.Chemscore.Internal.Correction>  (422) 
0.0112

>  <Gold.PLP.Chemscore.Metal>  (422) 
0.0000

>  <Gold.PLP.Fitness>  (422) 
39.1673

>  <Gold.PLP.PLP>  (422) 
-27.4118

>  <Gold.PLP.ligand.clash>  (422) 
0.0000

>  <Gold.PLP.ligand.torsion>  (422) 
0.1147

>  <Gold.PLP.part.buried>  (422) 
-4.7539

>  <Gold.PLP.part.hbond>  (422) 
-6.6462

>  <Gold.PLP.part.metal>  (422) 
0.0000

>  <Gold.PLP.part.nonpolar>  (422) 
-16.1891

>  <Gold.PLP.part.repulsive>  (422) 
0.2222

>  <Gold.Protein.RotatedAtoms>  (422) 


>  <Gold.Protein.RotatedTorsions>  (422) 


>  <Gold.Protein.RotatedWaterAtoms>  (422) 


>  <Gold.Version>  (422) 
5.3.0

>  <PLP.Chemscore.CHOScore>  (422) 


>  <PLP.Chemscore.Hbond>  (422) 


>  <PLP.Chemscore.Internal.Correction>  (422) 


>  <PLP.Chemscore.Metal>  (422) 


>  <PLP.Fitness>  (422) 


>  <PLP.PLP>  (422) 


>  <PLP.ligand.clash>  (422) 


>  <PLP.ligand.torsion>  (422) 


>  <PLP.part.buried>  (422) 


>  <PLP.part.hbond>  (422) 


>  <PLP.part.metal>  (422) 


>  <PLP.part.nonpolar>  (422) 


>  <PLP.part.repulsive>  (422) 


>  <Version>  (422) 


$$$$
422|Compound_241|Compounds_3D_F|sdf|59|dock7|1
     RDKit          3D

  9  8  0  0  0  0  0  0  0  0999 V2000
   -3.1623  -16.3053   10.8041 O   0  0  0  0  0  0  0  0  0  0  0  0
   -3.6942  -16.8389   12.0145 C   0  0  0  0  0  0  0  0  0  0  0  0
   -5.0459  -16.1896   12.3439 C   0  0  0  0  0  0  0  0  0  0  0  0
   -4.9012  -14.7437   12.4192 N   0  0  0  0  0  0  0  0  0  0  0  0
   -5.9487  -13.8540   12.4725 C   0  0  0  0  0  0  0  0  0  0  0  0
   -7.1343  -14.1748   12.4637 O   0  0  0  0  0  0  0  0  0  0  0  0
   -5.5004  -12.3931   12.4856 C   0  0  0  0  0  0  0  0  0  0  0  0
   -4.4018  -12.1894   13.4457 N   0  0  0  0  0  0  0  0  0  0  0  0
   -6.1149  -16.5477   11.3140 C   0  0  0  0  0  0  0  0  0  0  0  0
  1  2  1  0
  2  3  1  0
  3  4  1  0
  3  9  1  0
  4  5  1  0
  5  6  2  0
  5  7  1  0
  7  8  1  0
M  END
>  <Gold.Gold.Protein.RotatedWaterAtoms>  (423) 


>  <Gold.Id.Protein>  (423) 


>  <Gold.PLP.Chemscore.CHOScore>  (423) 
0.0000

>  <Gold.PLP.Chemscore.Hbond>  (423) 
4.2556

>  <Gold.PLP.Chemscore.Internal.Correction>  (423) 
0.0112

>  <Gold.PLP.Chemscore.Metal>  (423) 
0.0000

>  <Gold.PLP.Fitness>  (423) 
40.0123

>  <Gold.PLP.PLP>  (423) 
-27.9399

>  <Gold.PLP.ligand.clash>  (423) 
0.0000

>  <Gold.PLP.ligand.torsion>  (423) 
0.3528

>  <Gold.PLP.part.buried>  (423) 
-6.3023

>  <Gold.PLP.part.hbond>  (423) 
-5.9481

>  <Gold.PLP.part.metal>  (423) 
0.0000

>  <Gold.PLP.part.nonpolar>  (423) 
-17.0013

>  <Gold.PLP.part.repulsive>  (423) 
0.2118

>  <Gold.Protein.RotatedAtoms>  (423) 


>  <Gold.Protein.RotatedTorsions>  (423) 


>  <Gold.Protein.RotatedWaterAtoms>  (423) 


>  <Gold.Version>  (423) 
5.3.0

>  <PLP.Chemscore.CHOScore>  (423) 


>  <PLP.Chemscore.Hbond>  (423) 


>  <PLP.Chemscore.Internal.Correction>  (423) 


>  <PLP.Chemscore.Metal>  (423) 


>  <PLP.Fitness>  (423) 


>  <PLP.PLP>  (423) 


>  <PLP.ligand.clash>  (423) 


>  <PLP.ligand.torsion>  (423) 


>  <PLP.part.buried>  (423) 


>  <PLP.part.hbond>  (423) 


>  <PLP.part.metal>  (423) 


>  <PLP.part.nonpolar>  (423) 


>  <PLP.part.repulsive>  (423) 


>  <Version>  (423) 


$$$$
423|Compound_241|Compounds_3D_F|sdf|59|dock8|1
     RDKit          3D

  9  8  0  0  0  0  0  0  0  0999 V2000
  -10.3006  -14.7524   12.8746 O   0  0  0  0  0  0  0  0  0  0  0  0
   -9.5528  -13.5571   12.6626 C   0  0  0  0  0  0  0  0  0  0  0  0
   -8.2904  -13.8477   11.8387 C   0  0  0  0  0  0  0  0  0  0  0  0
   -8.6526  -14.4435   10.5616 N   0  0  0  0  0  0  0  0  0  0  0  0
   -8.4628  -15.7654   10.2327 C   0  0  0  0  0  0  0  0  0  0  0  0
   -7.9642  -16.6029   10.9801 O   0  0  0  0  0  0  0  0  0  0  0  0
   -8.8827  -16.0982    8.8016 C   0  0  0  0  0  0  0  0  0  0  0  0
  -10.2423  -15.6031    8.5245 N   0  0  0  0  0  0  0  0  0  0  0  0
   -7.4625  -12.5865   11.6028 C   0  0  0  0  0  0  0  0  0  0  0  0
  1  2  1  0
  2  3  1  0
  3  4  1  0
  3  9  1  0
  4  5  1  0
  5  6  2  0
  5  7  1  0
  7  8  1  0
M  END
>  <Gold.Gold.Protein.RotatedWaterAtoms>  (424) 


>  <Gold.Id.Protein>  (424) 


>  <Gold.PLP.Chemscore.CHOScore>  (424) 
0.0000

>  <Gold.PLP.Chemscore.Hbond>  (424) 
5.0279

>  <Gold.PLP.Chemscore.Internal.Correction>  (424) 
0.0112

>  <Gold.PLP.Chemscore.Metal>  (424) 
0.0000

>  <Gold.PLP.Fitness>  (424) 
37.4519

>  <Gold.PLP.PLP>  (424) 
-22.7942

>  <Gold.PLP.ligand.clash>  (424) 
0.0000

>  <Gold.PLP.ligand.torsion>  (424) 
0.2186

>  <Gold.PLP.part.buried>  (424) 
-2.7641

>  <Gold.PLP.part.hbond>  (424) 
-6.0847

>  <Gold.PLP.part.metal>  (424) 
0.0000

>  <Gold.PLP.part.nonpolar>  (424) 
-14.0021

>  <Gold.PLP.part.repulsive>  (424) 
0.0967

>  <Gold.Protein.RotatedAtoms>  (424) 


>  <Gold.Protein.RotatedTorsions>  (424) 


>  <Gold.Protein.RotatedWaterAtoms>  (424) 


>  <Gold.Version>  (424) 
5.3.0

>  <PLP.Chemscore.CHOScore>  (424) 


>  <PLP.Chemscore.Hbond>  (424) 


>  <PLP.Chemscore.Internal.Correction>  (424) 


>  <PLP.Chemscore.Metal>  (424) 


>  <PLP.Fitness>  (424) 


>  <PLP.PLP>  (424) 


>  <PLP.ligand.clash>  (424) 


>  <PLP.ligand.torsion>  (424) 


>  <PLP.part.buried>  (424) 


>  <PLP.part.hbond>  (424) 


>  <PLP.part.metal>  (424) 


>  <PLP.part.nonpolar>  (424) 


>  <PLP.part.repulsive>  (424) 


>  <Version>  (424) 


$$$$
424|Compound_241|Compounds_3D_F|sdf|59|dock9|1
     RDKit          3D

  9  8  0  0  0  0  0  0  0  0999 V2000
   -4.5531  -16.0956    9.4246 O   0  0  0  0  0  0  0  0  0  0  0  0
   -5.2180  -16.6856   10.5393 C   0  0  0  0  0  0  0  0  0  0  0  0
   -4.5352  -16.2799   11.8532 C   0  0  0  0  0  0  0  0  0  0  0  0
   -4.6330  -14.8408   12.0442 N   0  0  0  0  0  0  0  0  0  0  0  0
   -5.8057  -14.1594   12.2723 C   0  0  0  0  0  0  0  0  0  0  0  0
   -6.9131  -14.6860   12.3428 O   0  0  0  0  0  0  0  0  0  0  0  0
   -5.6153  -12.6467   12.3753 C   0  0  0  0  0  0  0  0  0  0  0  0
   -4.6140  -12.3121   13.4029 N   0  0  0  0  0  0  0  0  0  0  0  0
   -5.1404  -17.0017   13.0551 C   0  0  0  0  0  0  0  0  0  0  0  0
  1  2  1  0
  2  3  1  0
  3  4  1  0
  3  9  1  0
  4  5  1  0
  5  6  2  0
  5  7  1  0
  7  8  1  0
M  END
>  <Gold.Gold.Protein.RotatedWaterAtoms>  (425) 


>  <Gold.Id.Protein>  (425) 


>  <Gold.PLP.Chemscore.CHOScore>  (425) 
0.0000

>  <Gold.PLP.Chemscore.Hbond>  (425) 
4.0000

>  <Gold.PLP.Chemscore.Internal.Correction>  (425) 
0.0112

>  <Gold.PLP.Chemscore.Metal>  (425) 
0.0000

>  <Gold.PLP.Fitness>  (425) 
38.6165

>  <Gold.PLP.PLP>  (425) 
-26.7630

>  <Gold.PLP.ligand.clash>  (425) 
0.0000

>  <Gold.PLP.ligand.torsion>  (425) 
0.0788

>  <Gold.PLP.part.buried>  (425) 
-6.0830

>  <Gold.PLP.part.hbond>  (425) 
-5.9997

>  <Gold.PLP.part.metal>  (425) 
0.0000

>  <Gold.PLP.part.nonpolar>  (425) 
-15.3719

>  <Gold.PLP.part.repulsive>  (425) 
0.2350

>  <Gold.Protein.RotatedAtoms>  (425) 


>  <Gold.Protein.RotatedTorsions>  (425) 


>  <Gold.Protein.RotatedWaterAtoms>  (425) 


>  <Gold.Version>  (425) 
5.3.0

>  <PLP.Chemscore.CHOScore>  (425) 


>  <PLP.Chemscore.Hbond>  (425) 


>  <PLP.Chemscore.Internal.Correction>  (425) 


>  <PLP.Chemscore.Metal>  (425) 


>  <PLP.Fitness>  (425) 


>  <PLP.PLP>  (425) 


>  <PLP.ligand.clash>  (425) 


>  <PLP.ligand.torsion>  (425) 


>  <PLP.part.buried>  (425) 


>  <PLP.part.hbond>  (425) 


>  <PLP.part.metal>  (425) 


>  <PLP.part.nonpolar>  (425) 


>  <PLP.part.repulsive>  (425) 


>  <Version>  (425) 


$$$$
425|Compound_248|Compounds_3D_F|sdf|60|dock1|1
     RDKit          3D

  9  8  0  0  0  0  0  0  0  0999 V2000
   -3.0653  -16.4252   10.3408 N   0  0  0  0  0  0  0  0  0  0  0  0
   -3.5067  -16.9682   11.6403 C   0  0  0  0  0  0  0  0  0  0  0  0
   -4.6923  -16.1716   12.1836 C   0  0  0  0  0  0  0  0  0  0  0  0
   -5.6346  -16.7065   12.7598 O   0  0  0  0  0  0  0  0  0  0  0  0
   -4.6078  -14.8232   11.9095 N   0  0  0  0  0  0  0  0  0  0  0  0
   -5.6187  -13.8584   12.2885 C   0  0  0  0  0  0  0  0  0  0  0  0
   -6.9718  -14.1480   11.6252 C   0  0  0  0  0  0  0  0  0  0  0  0
   -8.0115  -13.2564   12.1514 N   0  0  0  0  0  0  0  0  0  0  0  0
   -7.6848  -11.8617   11.8821 C   0  0  0  0  0  0  0  0  0  0  0  0
  1  2  1  0
  2  3  1  0
  3  4  2  0
  3  5  1  0
  5  6  1  0
  6  7  1  0
  7  8  1  0
  8  9  1  0
M  END
>  <Gold.Gold.Protein.RotatedWaterAtoms>  (426) 


>  <Gold.Id.Protein>  (426) 


>  <Gold.PLP.Chemscore.CHOScore>  (426) 
0.0000

>  <Gold.PLP.Chemscore.Hbond>  (426) 
2.5120

>  <Gold.PLP.Chemscore.Internal.Correction>  (426) 
0.0164

>  <Gold.PLP.Chemscore.Metal>  (426) 
0.0000

>  <Gold.PLP.Fitness>  (426) 
34.0212

>  <Gold.PLP.PLP>  (426) 
-27.1289

>  <Gold.PLP.ligand.clash>  (426) 
0.0000

>  <Gold.PLP.ligand.torsion>  (426) 
0.3301

>  <Gold.PLP.part.buried>  (426) 
-6.6876

>  <Gold.PLP.part.hbond>  (426) 
-3.8365

>  <Gold.PLP.part.metal>  (426) 
0.0000

>  <Gold.PLP.part.nonpolar>  (426) 
-16.7943

>  <Gold.PLP.part.repulsive>  (426) 
0.1821

>  <Gold.Protein.RotatedAtoms>  (426) 


>  <Gold.Protein.RotatedTorsions>  (426) 


>  <Gold.Protein.RotatedWaterAtoms>  (426) 


>  <Gold.Version>  (426) 
5.3.0

>  <PLP.Chemscore.CHOScore>  (426) 


>  <PLP.Chemscore.Hbond>  (426) 


>  <PLP.Chemscore.Internal.Correction>  (426) 


>  <PLP.Chemscore.Metal>  (426) 


>  <PLP.Fitness>  (426) 


>  <PLP.PLP>  (426) 


>  <PLP.ligand.clash>  (426) 


>  <PLP.ligand.torsion>  (426) 


>  <PLP.part.buried>  (426) 


>  <PLP.part.hbond>  (426) 


>  <PLP.part.metal>  (426) 


>  <PLP.part.nonpolar>  (426) 


>  <PLP.part.repulsive>  (426) 


>  <Version>  (426) 


$$$$
426|Compound_248|Compounds_3D_F|sdf|60|dock2|1
     RDKit          3D

  9  8  0  0  0  0  0  0  0  0999 V2000
   -4.5936  -12.4005   13.6304 N   0  0  0  0  0  0  0  0  0  0  0  0
   -5.5214  -12.6045   12.5009 C   0  0  0  0  0  0  0  0  0  0  0  0
   -5.7969  -14.0929   12.2906 C   0  0  0  0  0  0  0  0  0  0  0  0
   -6.9345  -14.5519   12.2542 O   0  0  0  0  0  0  0  0  0  0  0  0
   -4.6467  -14.8478   12.2035 N   0  0  0  0  0  0  0  0  0  0  0  0
   -4.6369  -16.2860   12.0360 C   0  0  0  0  0  0  0  0  0  0  0  0
   -5.0881  -16.7075   10.6312 C   0  0  0  0  0  0  0  0  0  0  0  0
   -4.0327  -16.4487    9.6454 N   0  0  0  0  0  0  0  0  0  0  0  0
   -2.8808  -17.3106    9.8791 C   0  0  0  0  0  0  0  0  0  0  0  0
  1  2  1  0
  2  3  1  0
  3  4  2  0
  3  5  1  0
  5  6  1  0
  6  7  1  0
  7  8  1  0
  8  9  1  0
M  END
>  <Gold.Gold.Protein.RotatedWaterAtoms>  (427) 


>  <Gold.Id.Protein>  (427) 


>  <Gold.PLP.Chemscore.CHOScore>  (427) 
0.0000

>  <Gold.PLP.Chemscore.Hbond>  (427) 
3.9120

>  <Gold.PLP.Chemscore.Internal.Correction>  (427) 
0.0109

>  <Gold.PLP.Chemscore.Metal>  (427) 
0.0000

>  <Gold.PLP.Fitness>  (427) 
37.1047

>  <Gold.PLP.PLP>  (427) 
-25.7183

>  <Gold.PLP.ligand.clash>  (427) 
0.0000

>  <Gold.PLP.ligand.torsion>  (427) 
0.1802

>  <Gold.PLP.part.buried>  (427) 
-5.7523

>  <Gold.PLP.part.hbond>  (427) 
-6.0000

>  <Gold.PLP.part.metal>  (427) 
0.0000

>  <Gold.PLP.part.nonpolar>  (427) 
-14.6913

>  <Gold.PLP.part.repulsive>  (427) 
0.2231

>  <Gold.Protein.RotatedAtoms>  (427) 


>  <Gold.Protein.RotatedTorsions>  (427) 


>  <Gold.Protein.RotatedWaterAtoms>  (427) 


>  <Gold.Version>  (427) 
5.3.0

>  <PLP.Chemscore.CHOScore>  (427) 


>  <PLP.Chemscore.Hbond>  (427) 


>  <PLP.Chemscore.Internal.Correction>  (427) 


>  <PLP.Chemscore.Metal>  (427) 


>  <PLP.Fitness>  (427) 


>  <PLP.PLP>  (427) 


>  <PLP.ligand.clash>  (427) 


>  <PLP.ligand.torsion>  (427) 


>  <PLP.part.buried>  (427) 


>  <PLP.part.hbond>  (427) 


>  <PLP.part.metal>  (427) 


>  <PLP.part.nonpolar>  (427) 


>  <PLP.part.repulsive>  (427) 


>  <Version>  (427) 


$$$$
427|Compound_248|Compounds_3D_F|sdf|60|dock3|1
     RDKit          3D

  9  8  0  0  0  0  0  0  0  0999 V2000
   -4.5095  -15.9812   10.7408 N   0  0  0  0  0  0  0  0  0  0  0  0
   -5.1300  -15.9789   12.0799 C   0  0  0  0  0  0  0  0  0  0  0  0
   -5.8096  -14.6385   12.3578 C   0  0  0  0  0  0  0  0  0  0  0  0
   -7.0234  -14.5356   12.5065 O   0  0  0  0  0  0  0  0  0  0  0  0
   -4.9285  -13.5783   12.3673 N   0  0  0  0  0  0  0  0  0  0  0  0
   -5.3257  -12.2017   12.5762 C   0  0  0  0  0  0  0  0  0  0  0  0
   -6.6641  -11.8770   11.8993 C   0  0  0  0  0  0  0  0  0  0  0  0
   -6.7968  -10.4335   11.6727 N   0  0  0  0  0  0  0  0  0  0  0  0
   -8.2000  -10.0460   11.5994 C   0  0  0  0  0  0  0  0  0  0  0  0
  1  2  1  0
  2  3  1  0
  3  4  2  0
  3  5  1  0
  5  6  1  0
  6  7  1  0
  7  8  1  0
  8  9  1  0
M  END
>  <Gold.Gold.Protein.RotatedWaterAtoms>  (428) 


>  <Gold.Id.Protein>  (428) 


>  <Gold.PLP.Chemscore.CHOScore>  (428) 
0.0000

>  <Gold.PLP.Chemscore.Hbond>  (428) 
2.9920

>  <Gold.PLP.Chemscore.Internal.Correction>  (428) 
0.0109

>  <Gold.PLP.Chemscore.Metal>  (428) 
0.0000

>  <Gold.PLP.Fitness>  (428) 
39.2055

>  <Gold.PLP.PLP>  (428) 
-31.0556

>  <Gold.PLP.ligand.clash>  (428) 
0.0000

>  <Gold.PLP.ligand.torsion>  (428) 
0.4185

>  <Gold.PLP.part.buried>  (428) 
-5.7557

>  <Gold.PLP.part.hbond>  (428) 
-3.5837

>  <Gold.PLP.part.metal>  (428) 
0.0000

>  <Gold.PLP.part.nonpolar>  (428) 
-21.6656

>  <Gold.PLP.part.repulsive>  (428) 
0.2377

>  <Gold.Protein.RotatedAtoms>  (428) 


>  <Gold.Protein.RotatedTorsions>  (428) 


>  <Gold.Protein.RotatedWaterAtoms>  (428) 


>  <Gold.Version>  (428) 
5.3.0

>  <PLP.Chemscore.CHOScore>  (428) 


>  <PLP.Chemscore.Hbond>  (428) 


>  <PLP.Chemscore.Internal.Correction>  (428) 


>  <PLP.Chemscore.Metal>  (428) 


>  <PLP.Fitness>  (428) 


>  <PLP.PLP>  (428) 


>  <PLP.ligand.clash>  (428) 


>  <PLP.ligand.torsion>  (428) 


>  <PLP.part.buried>  (428) 


>  <PLP.part.hbond>  (428) 


>  <PLP.part.metal>  (428) 


>  <PLP.part.nonpolar>  (428) 


>  <PLP.part.repulsive>  (428) 


>  <Version>  (428) 


$$$$
428|Compound_248|Compounds_3D_F|sdf|60|dock4|1
     RDKit          3D

  9  8  0  0  0  0  0  0  0  0999 V2000
   -4.4890  -12.1987   13.6125 N   0  0  0  0  0  0  0  0  0  0  0  0
   -5.4225  -12.3229   12.4761 C   0  0  0  0  0  0  0  0  0  0  0  0
   -6.0203  -13.7282   12.4195 C   0  0  0  0  0  0  0  0  0  0  0  0
   -7.2310  -13.9265   12.3888 O   0  0  0  0  0  0  0  0  0  0  0  0
   -5.0665  -14.7227   12.4611 N   0  0  0  0  0  0  0  0  0  0  0  0
   -5.3756  -16.1372   12.4529 C   0  0  0  0  0  0  0  0  0  0  0  0
   -5.4060  -16.7141   11.0312 C   0  0  0  0  0  0  0  0  0  0  0  0
   -4.0682  -16.6873   10.4293 N   0  0  0  0  0  0  0  0  0  0  0  0
   -3.0918  -17.3232   11.3050 C   0  0  0  0  0  0  0  0  0  0  0  0
  1  2  1  0
  2  3  1  0
  3  4  2  0
  3  5  1  0
  5  6  1  0
  6  7  1  0
  7  8  1  0
  8  9  1  0
M  END
>  <Gold.Gold.Protein.RotatedWaterAtoms>  (429) 


>  <Gold.Id.Protein>  (429) 


>  <Gold.PLP.Chemscore.CHOScore>  (429) 
0.0000

>  <Gold.PLP.Chemscore.Hbond>  (429) 
3.5138

>  <Gold.PLP.Chemscore.Internal.Correction>  (429) 
0.0109

>  <Gold.PLP.Chemscore.Metal>  (429) 
0.0000

>  <Gold.PLP.Fitness>  (429) 
35.2222

>  <Gold.PLP.PLP>  (429) 
-25.2076

>  <Gold.PLP.ligand.clash>  (429) 
0.0000

>  <Gold.PLP.ligand.torsion>  (429) 
0.2688

>  <Gold.PLP.part.buried>  (429) 
-5.6808

>  <Gold.PLP.part.hbond>  (429) 
-4.1845

>  <Gold.PLP.part.metal>  (429) 
0.0000

>  <Gold.PLP.part.nonpolar>  (429) 
-15.8908

>  <Gold.PLP.part.repulsive>  (429) 
0.2019

>  <Gold.Protein.RotatedAtoms>  (429) 


>  <Gold.Protein.RotatedTorsions>  (429) 


>  <Gold.Protein.RotatedWaterAtoms>  (429) 


>  <Gold.Version>  (429) 
5.3.0

>  <PLP.Chemscore.CHOScore>  (429) 


>  <PLP.Chemscore.Hbond>  (429) 


>  <PLP.Chemscore.Internal.Correction>  (429) 


>  <PLP.Chemscore.Metal>  (429) 


>  <PLP.Fitness>  (429) 


>  <PLP.PLP>  (429) 


>  <PLP.ligand.clash>  (429) 


>  <PLP.ligand.torsion>  (429) 


>  <PLP.part.buried>  (429) 


>  <PLP.part.hbond>  (429) 


>  <PLP.part.metal>  (429) 


>  <PLP.part.nonpolar>  (429) 


>  <PLP.part.repulsive>  (429) 


>  <Version>  (429) 


$$$$
429|Compound_248|Compounds_3D_F|sdf|60|dock5|1
     RDKit          3D

  9  8  0  0  0  0  0  0  0  0999 V2000
   -2.9719  -16.3748   10.4508 N   0  0  0  0  0  0  0  0  0  0  0  0
   -3.7969  -17.1776   11.3745 C   0  0  0  0  0  0  0  0  0  0  0  0
   -4.7968  -16.2903   12.1152 C   0  0  0  0  0  0  0  0  0  0  0  0
   -5.6585  -16.7499   12.8583 O   0  0  0  0  0  0  0  0  0  0  0  0
   -4.6559  -14.9519   11.8160 N   0  0  0  0  0  0  0  0  0  0  0  0
   -5.5008  -13.9105   12.3618 C   0  0  0  0  0  0  0  0  0  0  0  0
   -6.9886  -14.1724   12.0920 C   0  0  0  0  0  0  0  0  0  0  0  0
   -7.7701  -12.9397   12.2416 N   0  0  0  0  0  0  0  0  0  0  0  0
   -9.0997  -13.0943   11.6647 C   0  0  0  0  0  0  0  0  0  0  0  0
  1  2  1  0
  2  3  1  0
  3  4  2  0
  3  5  1  0
  5  6  1  0
  6  7  1  0
  7  8  1  0
  8  9  1  0
M  END
>  <Gold.Gold.Protein.RotatedWaterAtoms>  (430) 


>  <Gold.Id.Protein>  (430) 


>  <Gold.PLP.Chemscore.CHOScore>  (430) 
0.0000

>  <Gold.PLP.Chemscore.Hbond>  (430) 
2.6640

>  <Gold.PLP.Chemscore.Internal.Correction>  (430) 
0.0109

>  <Gold.PLP.Chemscore.Metal>  (430) 
0.0000

>  <Gold.PLP.Fitness>  (430) 
34.8283

>  <Gold.PLP.PLP>  (430) 
-27.1602

>  <Gold.PLP.ligand.clash>  (430) 
0.0000

>  <Gold.PLP.ligand.torsion>  (430) 
0.1674

>  <Gold.PLP.part.buried>  (430) 
-6.4860

>  <Gold.PLP.part.hbond>  (430) 
-3.7660

>  <Gold.PLP.part.metal>  (430) 
0.0000

>  <Gold.PLP.part.nonpolar>  (430) 
-16.9301

>  <Gold.PLP.part.repulsive>  (430) 
0.1671

>  <Gold.Protein.RotatedAtoms>  (430) 


>  <Gold.Protein.RotatedTorsions>  (430) 


>  <Gold.Protein.RotatedWaterAtoms>  (430) 


>  <Gold.Version>  (430) 
5.3.0

>  <PLP.Chemscore.CHOScore>  (430) 


>  <PLP.Chemscore.Hbond>  (430) 


>  <PLP.Chemscore.Internal.Correction>  (430) 


>  <PLP.Chemscore.Metal>  (430) 


>  <PLP.Fitness>  (430) 


>  <PLP.PLP>  (430) 


>  <PLP.ligand.clash>  (430) 


>  <PLP.ligand.torsion>  (430) 


>  <PLP.part.buried>  (430) 


>  <PLP.part.hbond>  (430) 


>  <PLP.part.metal>  (430) 


>  <PLP.part.nonpolar>  (430) 


>  <PLP.part.repulsive>  (430) 


>  <Version>  (430) 


$$$$
430|Compound_248|Compounds_3D_F|sdf|60|dock6|1
     RDKit          3D

  9  8  0  0  0  0  0  0  0  0999 V2000
   -4.6303  -12.2065   13.4054 N   0  0  0  0  0  0  0  0  0  0  0  0
   -5.4875  -12.5251   12.2469 C   0  0  0  0  0  0  0  0  0  0  0  0
   -5.8289  -14.0145   12.2213 C   0  0  0  0  0  0  0  0  0  0  0  0
   -6.9848  -14.4245   12.2636 O   0  0  0  0  0  0  0  0  0  0  0  0
   -4.7131  -14.8238   12.2007 N   0  0  0  0  0  0  0  0  0  0  0  0
   -4.7663  -16.2707   12.2056 C   0  0  0  0  0  0  0  0  0  0  0  0
   -3.5040  -16.8977   11.5988 C   0  0  0  0  0  0  0  0  0  0  0  0
   -3.3314  -16.4760   10.2041 N   0  0  0  0  0  0  0  0  0  0  0  0
   -2.4129  -17.3641    9.5027 C   0  0  0  0  0  0  0  0  0  0  0  0
  1  2  1  0
  2  3  1  0
  3  4  2  0
  3  5  1  0
  5  6  1  0
  6  7  1  0
  7  8  1  0
  8  9  1  0
M  END
>  <Gold.Gold.Protein.RotatedWaterAtoms>  (431) 


>  <Gold.Id.Protein>  (431) 


>  <Gold.PLP.Chemscore.CHOScore>  (431) 
0.0000

>  <Gold.PLP.Chemscore.Hbond>  (431) 
4.0000

>  <Gold.PLP.Chemscore.Internal.Correction>  (431) 
0.0042

>  <Gold.PLP.Chemscore.Metal>  (431) 
0.0000

>  <Gold.PLP.Fitness>  (431) 
39.5294

>  <Gold.PLP.PLP>  (431) 
-28.0303

>  <Gold.PLP.ligand.clash>  (431) 
0.0000

>  <Gold.PLP.ligand.torsion>  (431) 
0.2525

>  <Gold.PLP.part.buried>  (431) 
-5.9954

>  <Gold.PLP.part.hbond>  (431) 
-6.3644

>  <Gold.PLP.part.metal>  (431) 
0.0000

>  <Gold.PLP.part.nonpolar>  (431) 
-15.7621

>  <Gold.PLP.part.repulsive>  (431) 
0.2199

>  <Gold.Protein.RotatedAtoms>  (431) 


>  <Gold.Protein.RotatedTorsions>  (431) 


>  <Gold.Protein.RotatedWaterAtoms>  (431) 


>  <Gold.Version>  (431) 
5.3.0

>  <PLP.Chemscore.CHOScore>  (431) 


>  <PLP.Chemscore.Hbond>  (431) 


>  <PLP.Chemscore.Internal.Correction>  (431) 


>  <PLP.Chemscore.Metal>  (431) 


>  <PLP.Fitness>  (431) 


>  <PLP.PLP>  (431) 


>  <PLP.ligand.clash>  (431) 


>  <PLP.ligand.torsion>  (431) 


>  <PLP.part.buried>  (431) 


>  <PLP.part.hbond>  (431) 


>  <PLP.part.metal>  (431) 


>  <PLP.part.nonpolar>  (431) 


>  <PLP.part.repulsive>  (431) 


>  <Version>  (431) 


$$$$
431|Compound_248|Compounds_3D_F|sdf|60|dock7|1
     RDKit          3D

  9  8  0  0  0  0  0  0  0  0999 V2000
   -4.5996  -12.1997   13.5566 N   0  0  0  0  0  0  0  0  0  0  0  0
   -5.5763  -12.4749   12.4848 C   0  0  0  0  0  0  0  0  0  0  0  0
   -5.8000  -13.9789   12.3314 C   0  0  0  0  0  0  0  0  0  0  0  0
   -6.9157  -14.4866   12.3908 O   0  0  0  0  0  0  0  0  0  0  0  0
   -4.6268  -14.6862   12.1770 N   0  0  0  0  0  0  0  0  0  0  0  0
   -4.5654  -16.1266   12.0438 C   0  0  0  0  0  0  0  0  0  0  0  0
   -5.4781  -16.6431   10.9236 C   0  0  0  0  0  0  0  0  0  0  0  0
   -5.4996  -15.7057    9.7951 N   0  0  0  0  0  0  0  0  0  0  0  0
   -5.4634  -16.4205    8.5254 C   0  0  0  0  0  0  0  0  0  0  0  0
  1  2  1  0
  2  3  1  0
  3  4  2  0
  3  5  1  0
  5  6  1  0
  6  7  1  0
  7  8  1  0
  8  9  1  0
M  END
>  <Gold.Gold.Protein.RotatedWaterAtoms>  (432) 


>  <Gold.Id.Protein>  (432) 


>  <Gold.PLP.Chemscore.CHOScore>  (432) 
0.0000

>  <Gold.PLP.Chemscore.Hbond>  (432) 
4.0000

>  <Gold.PLP.Chemscore.Internal.Correction>  (432) 
0.0042

>  <Gold.PLP.Chemscore.Metal>  (432) 
0.0000

>  <Gold.PLP.Fitness>  (432) 
36.6244

>  <Gold.PLP.PLP>  (432) 
-25.5852

>  <Gold.PLP.ligand.clash>  (432) 
0.0000

>  <Gold.PLP.ligand.torsion>  (432) 
0.4825

>  <Gold.PLP.part.buried>  (432) 
-5.7964

>  <Gold.PLP.part.hbond>  (432) 
-5.9800

>  <Gold.PLP.part.metal>  (432) 
0.0000

>  <Gold.PLP.part.nonpolar>  (432) 
-14.3580

>  <Gold.PLP.part.repulsive>  (432) 
0.2452

>  <Gold.Protein.RotatedAtoms>  (432) 


>  <Gold.Protein.RotatedTorsions>  (432) 


>  <Gold.Protein.RotatedWaterAtoms>  (432) 


>  <Gold.Version>  (432) 
5.3.0

>  <PLP.Chemscore.CHOScore>  (432) 


>  <PLP.Chemscore.Hbond>  (432) 


>  <PLP.Chemscore.Internal.Correction>  (432) 


>  <PLP.Chemscore.Metal>  (432) 


>  <PLP.Fitness>  (432) 


>  <PLP.PLP>  (432) 


>  <PLP.ligand.clash>  (432) 


>  <PLP.ligand.torsion>  (432) 


>  <PLP.part.buried>  (432) 


>  <PLP.part.hbond>  (432) 


>  <PLP.part.metal>  (432) 


>  <PLP.part.nonpolar>  (432) 


>  <PLP.part.repulsive>  (432) 


>  <Version>  (432) 


$$$$
432|Compound_248|Compounds_3D_F|sdf|60|dock8|1
     RDKit          3D

  9  8  0  0  0  0  0  0  0  0999 V2000
   -4.6012  -12.2006   13.2970 N   0  0  0  0  0  0  0  0  0  0  0  0
   -5.7807  -11.8112   12.4999 C   0  0  0  0  0  0  0  0  0  0  0  0
   -6.5984  -13.0417   12.1091 C   0  0  0  0  0  0  0  0  0  0  0  0
   -7.7984  -12.9810   11.8593 O   0  0  0  0  0  0  0  0  0  0  0  0
   -5.8611  -14.2065   12.1229 N   0  0  0  0  0  0  0  0  0  0  0  0
   -6.4102  -15.5119   11.8217 C   0  0  0  0  0  0  0  0  0  0  0  0
   -5.8404  -16.0927   10.5206 C   0  0  0  0  0  0  0  0  0  0  0  0
   -5.8038  -15.0725    9.4667 N   0  0  0  0  0  0  0  0  0  0  0  0
   -5.8609  -15.6872    8.1464 C   0  0  0  0  0  0  0  0  0  0  0  0
  1  2  1  0
  2  3  1  0
  3  4  2  0
  3  5  1  0
  5  6  1  0
  6  7  1  0
  7  8  1  0
  8  9  1  0
M  END
>  <Gold.Gold.Protein.RotatedWaterAtoms>  (433) 


>  <Gold.Id.Protein>  (433) 


>  <Gold.PLP.Chemscore.CHOScore>  (433) 
0.0000

>  <Gold.PLP.Chemscore.Hbond>  (433) 
3.0000

>  <Gold.PLP.Chemscore.Internal.Correction>  (433) 
0.0042

>  <Gold.PLP.Chemscore.Metal>  (433) 
0.0000

>  <Gold.PLP.Fitness>  (433) 
32.6420

>  <Gold.PLP.PLP>  (433) 
-24.7704

>  <Gold.PLP.ligand.clash>  (433) 
0.0000

>  <Gold.PLP.ligand.torsion>  (433) 
0.5663

>  <Gold.PLP.part.buried>  (433) 
-6.2074

>  <Gold.PLP.part.hbond>  (433) 
-5.0000

>  <Gold.PLP.part.metal>  (433) 
0.0000

>  <Gold.PLP.part.nonpolar>  (433) 
-14.0454

>  <Gold.PLP.part.repulsive>  (433) 
0.2022

>  <Gold.Protein.RotatedAtoms>  (433) 


>  <Gold.Protein.RotatedTorsions>  (433) 


>  <Gold.Protein.RotatedWaterAtoms>  (433) 


>  <Gold.Version>  (433) 
5.3.0

>  <PLP.Chemscore.CHOScore>  (433) 


>  <PLP.Chemscore.Hbond>  (433) 


>  <PLP.Chemscore.Internal.Correction>  (433) 


>  <PLP.Chemscore.Metal>  (433) 


>  <PLP.Fitness>  (433) 


>  <PLP.PLP>  (433) 


>  <PLP.ligand.clash>  (433) 


>  <PLP.ligand.torsion>  (433) 


>  <PLP.part.buried>  (433) 


>  <PLP.part.hbond>  (433) 


>  <PLP.part.metal>  (433) 


>  <PLP.part.nonpolar>  (433) 


>  <PLP.part.repulsive>  (433) 


>  <Version>  (433) 


$$$$
433|Compound_248|Compounds_3D_F|sdf|60|dock9|1
     RDKit          3D

  9  8  0  0  0  0  0  0  0  0999 V2000
   -4.5997  -12.2290   13.6152 N   0  0  0  0  0  0  0  0  0  0  0  0
   -5.5641  -12.2913   12.4997 C   0  0  0  0  0  0  0  0  0  0  0  0
   -5.9489  -13.7395   12.1989 C   0  0  0  0  0  0  0  0  0  0  0  0
   -7.0954  -14.0682   11.9098 O   0  0  0  0  0  0  0  0  0  0  0  0
   -4.8962  -14.6183   12.3402 N   0  0  0  0  0  0  0  0  0  0  0  0
   -5.0077  -16.0484   12.1433 C   0  0  0  0  0  0  0  0  0  0  0  0
   -5.3230  -16.4084   10.6853 C   0  0  0  0  0  0  0  0  0  0  0  0
   -4.0916  -16.4967    9.8924 N   0  0  0  0  0  0  0  0  0  0  0  0
   -3.1092  -17.3478   10.5518 C   0  0  0  0  0  0  0  0  0  0  0  0
  1  2  1  0
  2  3  1  0
  3  4  2  0
  3  5  1  0
  5  6  1  0
  6  7  1  0
  7  8  1  0
  8  9  1  0
M  END
>  <Gold.Gold.Protein.RotatedWaterAtoms>  (434) 


>  <Gold.Id.Protein>  (434) 


>  <Gold.PLP.Chemscore.CHOScore>  (434) 
0.0000

>  <Gold.PLP.Chemscore.Hbond>  (434) 
3.9600

>  <Gold.PLP.Chemscore.Internal.Correction>  (434) 
0.0042

>  <Gold.PLP.Chemscore.Metal>  (434) 
0.0000

>  <Gold.PLP.Fitness>  (434) 
36.2307

>  <Gold.PLP.PLP>  (434) 
-25.3382

>  <Gold.PLP.ligand.clash>  (434) 
0.0000

>  <Gold.PLP.ligand.torsion>  (434) 
0.4959

>  <Gold.PLP.part.buried>  (434) 
-5.6841

>  <Gold.PLP.part.hbond>  (434) 
-5.5443

>  <Gold.PLP.part.metal>  (434) 
0.0000

>  <Gold.PLP.part.nonpolar>  (434) 
-14.7661

>  <Gold.PLP.part.repulsive>  (434) 
0.1895

>  <Gold.Protein.RotatedAtoms>  (434) 


>  <Gold.Protein.RotatedTorsions>  (434) 


>  <Gold.Protein.RotatedWaterAtoms>  (434) 


>  <Gold.Version>  (434) 
5.3.0

>  <PLP.Chemscore.CHOScore>  (434) 


>  <PLP.Chemscore.Hbond>  (434) 


>  <PLP.Chemscore.Internal.Correction>  (434) 


>  <PLP.Chemscore.Metal>  (434) 


>  <PLP.Fitness>  (434) 


>  <PLP.PLP>  (434) 


>  <PLP.ligand.clash>  (434) 


>  <PLP.ligand.torsion>  (434) 


>  <PLP.part.buried>  (434) 


>  <PLP.part.hbond>  (434) 


>  <PLP.part.metal>  (434) 


>  <PLP.part.nonpolar>  (434) 


>  <PLP.part.repulsive>  (434) 


>  <Version>  (434) 


$$$$
434|Compound_249|Compounds_3D_F|sdf|61|dock1|1
     RDKit          3D

 12 11  0  0  0  0  0  0  0  0999 V2000
   -5.4973  -15.0581    8.8198 O   0  0  0  0  0  0  0  0  0  0  0  0
   -6.5761  -15.6936    9.3339 C   0  0  0  0  0  0  0  0  0  0  0  0
   -7.1392  -16.5466    8.6637 O   0  0  0  0  0  0  0  0  0  0  0  0
   -7.0273  -15.1593   10.7067 C   0  0  0  0  0  0  0  0  0  0  0  0
   -6.1012  -14.1130   11.1830 N   0  0  0  0  0  0  0  0  0  0  0  0
   -6.3670  -13.1905   12.1728 C   0  0  0  0  0  0  0  0  0  0  0  0
   -7.4181  -13.1098   12.7993 O   0  0  0  0  0  0  0  0  0  0  0  0
   -5.2052  -12.2247   12.4000 C   0  0  0  0  0  0  0  0  0  0  0  0
   -4.5597  -12.4943   13.7002 N   0  0  0  0  0  0  0  0  0  0  0  0
   -7.1292  -16.3167   11.7103 C   0  0  0  0  0  0  0  0  0  0  0  0
   -8.4119  -14.4983   10.4900 C   0  0  0  0  0  0  0  0  0  0  0  0
   -9.3290  -15.3476    9.8120 O   0  0  0  0  0  0  0  0  0  0  0  0
  1  2  1  0
  2  3  2  0
  2  4  1  0
  4  5  1  0
  4 10  1  0
  4 11  1  0
  5  6  1  0
  6  7  2  0
  6  8  1  0
  8  9  1  0
 11 12  1  0
M  END
>  <Gold.Gold.Protein.RotatedWaterAtoms>  (435) 


>  <Gold.Id.Protein>  (435) 


>  <Gold.PLP.Chemscore.CHOScore>  (435) 
0.0000

>  <Gold.PLP.Chemscore.Hbond>  (435) 
4.4795

>  <Gold.PLP.Chemscore.Internal.Correction>  (435) 
0.0853

>  <Gold.PLP.Chemscore.Metal>  (435) 
0.0000

>  <Gold.PLP.Fitness>  (435) 
40.3854

>  <Gold.PLP.PLP>  (435) 
-27.9270

>  <Gold.PLP.ligand.clash>  (435) 
0.0000

>  <Gold.PLP.ligand.torsion>  (435) 
0.5327

>  <Gold.PLP.part.buried>  (435) 
-6.4552

>  <Gold.PLP.part.hbond>  (435) 
-7.2173

>  <Gold.PLP.part.metal>  (435) 
0.0000

>  <Gold.PLP.part.nonpolar>  (435) 
-15.5202

>  <Gold.PLP.part.repulsive>  (435) 
0.9993

>  <Gold.Protein.RotatedAtoms>  (435) 


>  <Gold.Protein.RotatedTorsions>  (435) 


>  <Gold.Protein.RotatedWaterAtoms>  (435) 


>  <Gold.Version>  (435) 
5.3.0

>  <PLP.Chemscore.CHOScore>  (435) 


>  <PLP.Chemscore.Hbond>  (435) 


>  <PLP.Chemscore.Internal.Correction>  (435) 


>  <PLP.Chemscore.Metal>  (435) 


>  <PLP.Fitness>  (435) 


>  <PLP.PLP>  (435) 


>  <PLP.ligand.clash>  (435) 


>  <PLP.ligand.torsion>  (435) 


>  <PLP.part.buried>  (435) 


>  <PLP.part.hbond>  (435) 


>  <PLP.part.metal>  (435) 


>  <PLP.part.nonpolar>  (435) 


>  <PLP.part.repulsive>  (435) 


>  <Version>  (435) 


$$$$
435|Compound_249|Compounds_3D_F|sdf|61|dock2|1
     RDKit          3D

 12 11  0  0  0  0  0  0  0  0999 V2000
   -5.5521  -14.9535    9.1918 O   0  0  0  0  0  0  0  0  0  0  0  0
   -6.6933  -15.2853    9.8396 C   0  0  0  0  0  0  0  0  0  0  0  0
   -7.7185  -15.4463    9.1940 O   0  0  0  0  0  0  0  0  0  0  0  0
   -6.5614  -15.3129   11.3744 C   0  0  0  0  0  0  0  0  0  0  0  0
   -6.0471  -14.0216   11.8716 N   0  0  0  0  0  0  0  0  0  0  0  0
   -6.7708  -12.8528   11.9790 C   0  0  0  0  0  0  0  0  0  0  0  0
   -7.9512  -12.7223   11.6733 O   0  0  0  0  0  0  0  0  0  0  0  0
   -5.9288  -11.6887   12.4986 C   0  0  0  0  0  0  0  0  0  0  0  0
   -4.7085  -12.1922   13.1599 N   0  0  0  0  0  0  0  0  0  0  0  0
   -5.6565  -16.4779   11.8002 C   0  0  0  0  0  0  0  0  0  0  0  0
   -7.9931  -15.4969   11.9376 C   0  0  0  0  0  0  0  0  0  0  0  0
   -8.5961  -16.7169   11.5248 O   0  0  0  0  0  0  0  0  0  0  0  0
  1  2  1  0
  2  3  2  0
  2  4  1  0
  4  5  1  0
  4 10  1  0
  4 11  1  0
  5  6  1  0
  6  7  2  0
  6  8  1  0
  8  9  1  0
 11 12  1  0
M  END
>  <Gold.Gold.Protein.RotatedWaterAtoms>  (436) 


>  <Gold.Id.Protein>  (436) 


>  <Gold.PLP.Chemscore.CHOScore>  (436) 
0.0000

>  <Gold.PLP.Chemscore.Hbond>  (436) 
3.3040

>  <Gold.PLP.Chemscore.Internal.Correction>  (436) 
0.0853

>  <Gold.PLP.Chemscore.Metal>  (436) 
0.0000

>  <Gold.PLP.Fitness>  (436) 
38.0165

>  <Gold.PLP.PLP>  (436) 
-29.4093

>  <Gold.PLP.ligand.clash>  (436) 
0.0000

>  <Gold.PLP.ligand.torsion>  (436) 
0.6950

>  <Gold.PLP.part.buried>  (436) 
-8.0585

>  <Gold.PLP.part.hbond>  (436) 
-4.9965

>  <Gold.PLP.part.metal>  (436) 
0.0000

>  <Gold.PLP.part.nonpolar>  (436) 
-16.5478

>  <Gold.PLP.part.repulsive>  (436) 
0.3067

>  <Gold.Protein.RotatedAtoms>  (436) 


>  <Gold.Protein.RotatedTorsions>  (436) 


>  <Gold.Protein.RotatedWaterAtoms>  (436) 


>  <Gold.Version>  (436) 
5.3.0

>  <PLP.Chemscore.CHOScore>  (436) 


>  <PLP.Chemscore.Hbond>  (436) 


>  <PLP.Chemscore.Internal.Correction>  (436) 


>  <PLP.Chemscore.Metal>  (436) 


>  <PLP.Fitness>  (436) 


>  <PLP.PLP>  (436) 


>  <PLP.ligand.clash>  (436) 


>  <PLP.ligand.torsion>  (436) 


>  <PLP.part.buried>  (436) 


>  <PLP.part.hbond>  (436) 


>  <PLP.part.metal>  (436) 


>  <PLP.part.nonpolar>  (436) 


>  <PLP.part.repulsive>  (436) 


>  <Version>  (436) 


$$$$
436|Compound_249|Compounds_3D_F|sdf|61|dock3|1
     RDKit          3D

 12 11  0  0  0  0  0  0  0  0999 V2000
   -6.0180  -14.9264    9.6349 O   0  0  0  0  0  0  0  0  0  0  0  0
   -6.9755  -15.6667    9.0290 C   0  0  0  0  0  0  0  0  0  0  0  0
   -6.9878  -15.7401    7.8091 O   0  0  0  0  0  0  0  0  0  0  0  0
   -8.0230  -16.2538    9.9943 C   0  0  0  0  0  0  0  0  0  0  0  0
   -8.7302  -15.1724   10.7084 N   0  0  0  0  0  0  0  0  0  0  0  0
   -8.1706  -14.3162   11.6332 C   0  0  0  0  0  0  0  0  0  0  0  0
   -6.9989  -14.3347   11.9945 O   0  0  0  0  0  0  0  0  0  0  0  0
   -9.1873  -13.3327   12.2104 C   0  0  0  0  0  0  0  0  0  0  0  0
  -10.2878  -14.0608   12.8726 N   0  0  0  0  0  0  0  0  0  0  0  0
   -7.3459  -17.2229   10.9739 C   0  0  0  0  0  0  0  0  0  0  0  0
   -9.0630  -16.9973    9.1187 C   0  0  0  0  0  0  0  0  0  0  0  0
  -10.3268  -17.1312    9.7566 O   0  0  0  0  0  0  0  0  0  0  0  0
  1  2  1  0
  2  3  2  0
  2  4  1  0
  4  5  1  0
  4 10  1  0
  4 11  1  0
  5  6  1  0
  6  7  2  0
  6  8  1  0
  8  9  1  0
 11 12  1  0
M  END
>  <Gold.Gold.Protein.RotatedWaterAtoms>  (437) 


>  <Gold.Id.Protein>  (437) 


>  <Gold.PLP.Chemscore.CHOScore>  (437) 
0.0000

>  <Gold.PLP.Chemscore.Hbond>  (437) 
3.6800

>  <Gold.PLP.Chemscore.Internal.Correction>  (437) 
0.0638

>  <Gold.PLP.Chemscore.Metal>  (437) 
0.0000

>  <Gold.PLP.Fitness>  (437) 
35.2538

>  <Gold.PLP.PLP>  (437) 
-25.0119

>  <Gold.PLP.ligand.clash>  (437) 
0.0036

>  <Gold.PLP.ligand.torsion>  (437) 
0.4291

>  <Gold.PLP.part.buried>  (437) 
-5.0110

>  <Gold.PLP.part.hbond>  (437) 
-6.8668

>  <Gold.PLP.part.metal>  (437) 
0.0000

>  <Gold.PLP.part.nonpolar>  (437) 
-12.8027

>  <Gold.PLP.part.repulsive>  (437) 
0.2887

>  <Gold.Protein.RotatedAtoms>  (437) 


>  <Gold.Protein.RotatedTorsions>  (437) 


>  <Gold.Protein.RotatedWaterAtoms>  (437) 


>  <Gold.Version>  (437) 
5.3.0

>  <PLP.Chemscore.CHOScore>  (437) 


>  <PLP.Chemscore.Hbond>  (437) 


>  <PLP.Chemscore.Internal.Correction>  (437) 


>  <PLP.Chemscore.Metal>  (437) 


>  <PLP.Fitness>  (437) 


>  <PLP.PLP>  (437) 


>  <PLP.ligand.clash>  (437) 


>  <PLP.ligand.torsion>  (437) 


>  <PLP.part.buried>  (437) 


>  <PLP.part.hbond>  (437) 


>  <PLP.part.metal>  (437) 


>  <PLP.part.nonpolar>  (437) 


>  <PLP.part.repulsive>  (437) 


>  <Version>  (437) 


$$$$
437|Compound_249|Compounds_3D_F|sdf|61|dock4|1
     RDKit          3D

 12 11  0  0  0  0  0  0  0  0999 V2000
   -3.1149  -16.2575   10.2963 O   0  0  0  0  0  0  0  0  0  0  0  0
   -3.8047  -16.7341   11.3589 C   0  0  0  0  0  0  0  0  0  0  0  0
   -3.3823  -17.7170   11.9500 O   0  0  0  0  0  0  0  0  0  0  0  0
   -5.1364  -16.0060   11.6237 C   0  0  0  0  0  0  0  0  0  0  0  0
   -4.8915  -14.5922   11.9707 N   0  0  0  0  0  0  0  0  0  0  0  0
   -5.8604  -13.6341   12.1817 C   0  0  0  0  0  0  0  0  0  0  0  0
   -7.0696  -13.8244   12.1089 O   0  0  0  0  0  0  0  0  0  0  0  0
   -5.2676  -12.2603   12.4905 C   0  0  0  0  0  0  0  0  0  0  0  0
   -4.3039  -12.3553   13.6051 N   0  0  0  0  0  0  0  0  0  0  0  0
   -5.9156  -16.7282   12.7320 C   0  0  0  0  0  0  0  0  0  0  0  0
   -5.9270  -16.0328   10.2913 C   0  0  0  0  0  0  0  0  0  0  0  0
   -5.3316  -15.2297    9.2799 O   0  0  0  0  0  0  0  0  0  0  0  0
  1  2  1  0
  2  3  2  0
  2  4  1  0
  4  5  1  0
  4 10  1  0
  4 11  1  0
  5  6  1  0
  6  7  2  0
  6  8  1  0
  8  9  1  0
 11 12  1  0
M  END
>  <Gold.Gold.Protein.RotatedWaterAtoms>  (438) 


>  <Gold.Id.Protein>  (438) 


>  <Gold.PLP.Chemscore.CHOScore>  (438) 
0.0000

>  <Gold.PLP.Chemscore.Hbond>  (438) 
5.7167

>  <Gold.PLP.Chemscore.Internal.Correction>  (438) 
0.0638

>  <Gold.PLP.Chemscore.Metal>  (438) 
0.0000

>  <Gold.PLP.Fitness>  (438) 
45.7846

>  <Gold.PLP.PLP>  (438) 
-28.9411

>  <Gold.PLP.ligand.clash>  (438) 
0.0000

>  <Gold.PLP.ligand.torsion>  (438) 
0.1851

>  <Gold.PLP.part.buried>  (438) 
-5.0157

>  <Gold.PLP.part.hbond>  (438) 
-8.0438

>  <Gold.PLP.part.metal>  (438) 
0.0000

>  <Gold.PLP.part.nonpolar>  (438) 
-18.3295

>  <Gold.PLP.part.repulsive>  (438) 
0.2858

>  <Gold.Protein.RotatedAtoms>  (438) 


>  <Gold.Protein.RotatedTorsions>  (438) 


>  <Gold.Protein.RotatedWaterAtoms>  (438) 


>  <Gold.Version>  (438) 
5.3.0

>  <PLP.Chemscore.CHOScore>  (438) 


>  <PLP.Chemscore.Hbond>  (438) 


>  <PLP.Chemscore.Internal.Correction>  (438) 


>  <PLP.Chemscore.Metal>  (438) 


>  <PLP.Fitness>  (438) 


>  <PLP.PLP>  (438) 


>  <PLP.ligand.clash>  (438) 


>  <PLP.ligand.torsion>  (438) 


>  <PLP.part.buried>  (438) 


>  <PLP.part.hbond>  (438) 


>  <PLP.part.metal>  (438) 


>  <PLP.part.nonpolar>  (438) 


>  <PLP.part.repulsive>  (438) 


>  <Version>  (438) 


$$$$
438|Compound_249|Compounds_3D_F|sdf|61|dock5|1
     RDKit          3D

 12 11  0  0  0  0  0  0  0  0999 V2000
   -5.4612  -15.1710    9.1773 O   0  0  0  0  0  0  0  0  0  0  0  0
   -6.5121  -15.5953    9.9172 C   0  0  0  0  0  0  0  0  0  0  0  0
   -7.5861  -15.7911    9.3677 O   0  0  0  0  0  0  0  0  0  0  0  0
   -6.2266  -15.6759   11.4291 C   0  0  0  0  0  0  0  0  0  0  0  0
   -5.8439  -14.3501   11.9536 N   0  0  0  0  0  0  0  0  0  0  0  0
   -6.6282  -13.2163   11.9295 C   0  0  0  0  0  0  0  0  0  0  0  0
   -7.7611  -13.1508   11.4647 O   0  0  0  0  0  0  0  0  0  0  0  0
   -5.9184  -12.0009   12.5237 C   0  0  0  0  0  0  0  0  0  0  0  0
   -4.7037  -12.4200   13.2508 N   0  0  0  0  0  0  0  0  0  0  0  0
   -5.1358  -16.7219   11.6999 C   0  0  0  0  0  0  0  0  0  0  0  0
   -7.5579  -16.0840   12.1089 C   0  0  0  0  0  0  0  0  0  0  0  0
   -8.0875  -17.3013   11.5992 O   0  0  0  0  0  0  0  0  0  0  0  0
  1  2  1  0
  2  3  2  0
  2  4  1  0
  4  5  1  0
  4 10  1  0
  4 11  1  0
  5  6  1  0
  6  7  2  0
  6  8  1  0
  8  9  1  0
 11 12  1  0
M  END
>  <Gold.Gold.Protein.RotatedWaterAtoms>  (439) 


>  <Gold.Id.Protein>  (439) 


>  <Gold.PLP.Chemscore.CHOScore>  (439) 
0.0000

>  <Gold.PLP.Chemscore.Hbond>  (439) 
3.3680

>  <Gold.PLP.Chemscore.Internal.Correction>  (439) 
0.0638

>  <Gold.PLP.Chemscore.Metal>  (439) 
0.0000

>  <Gold.PLP.Fitness>  (439) 
38.7369

>  <Gold.PLP.PLP>  (439) 
-28.9555

>  <Gold.PLP.ligand.clash>  (439) 
0.0000

>  <Gold.PLP.ligand.torsion>  (439) 
0.1932

>  <Gold.PLP.part.buried>  (439) 
-7.7285

>  <Gold.PLP.part.hbond>  (439) 
-5.0000

>  <Gold.PLP.part.metal>  (439) 
0.0000

>  <Gold.PLP.part.nonpolar>  (439) 
-16.7015

>  <Gold.PLP.part.repulsive>  (439) 
0.2595

>  <Gold.Protein.RotatedAtoms>  (439) 


>  <Gold.Protein.RotatedTorsions>  (439) 


>  <Gold.Protein.RotatedWaterAtoms>  (439) 


>  <Gold.Version>  (439) 
5.3.0

>  <PLP.Chemscore.CHOScore>  (439) 


>  <PLP.Chemscore.Hbond>  (439) 


>  <PLP.Chemscore.Internal.Correction>  (439) 


>  <PLP.Chemscore.Metal>  (439) 


>  <PLP.Fitness>  (439) 


>  <PLP.PLP>  (439) 


>  <PLP.ligand.clash>  (439) 


>  <PLP.ligand.torsion>  (439) 


>  <PLP.part.buried>  (439) 


>  <PLP.part.hbond>  (439) 


>  <PLP.part.metal>  (439) 


>  <PLP.part.nonpolar>  (439) 


>  <PLP.part.repulsive>  (439) 


>  <Version>  (439) 


$$$$
439|Compound_249|Compounds_3D_F|sdf|61|dock6|1
     RDKit          3D

 12 11  0  0  0  0  0  0  0  0999 V2000
   -3.3939  -15.9630   11.0704 O   0  0  0  0  0  0  0  0  0  0  0  0
   -4.5704  -16.6320   11.0839 C   0  0  0  0  0  0  0  0  0  0  0  0
   -4.5670  -17.8447   10.9315 O   0  0  0  0  0  0  0  0  0  0  0  0
   -5.8105  -15.7238   11.1892 C   0  0  0  0  0  0  0  0  0  0  0  0
   -5.4130  -14.3462   11.5404 N   0  0  0  0  0  0  0  0  0  0  0  0
   -6.2102  -13.4118   12.1670 C   0  0  0  0  0  0  0  0  0  0  0  0
   -7.3695  -13.5963   12.5216 O   0  0  0  0  0  0  0  0  0  0  0  0
   -5.5034  -12.0702   12.3535 C   0  0  0  0  0  0  0  0  0  0  0  0
   -4.3391  -12.2228   13.2486 N   0  0  0  0  0  0  0  0  0  0  0  0
   -6.7959  -16.3016   12.2151 C   0  0  0  0  0  0  0  0  0  0  0  0
   -6.4495  -15.6833    9.7781 C   0  0  0  0  0  0  0  0  0  0  0  0
   -5.5603  -15.1913    8.7835 O   0  0  0  0  0  0  0  0  0  0  0  0
  1  2  1  0
  2  3  2  0
  2  4  1  0
  4  5  1  0
  4 10  1  0
  4 11  1  0
  5  6  1  0
  6  7  2  0
  6  8  1  0
  8  9  1  0
 11 12  1  0
M  END
>  <Gold.Gold.Protein.RotatedWaterAtoms>  (440) 


>  <Gold.Id.Protein>  (440) 


>  <Gold.PLP.Chemscore.CHOScore>  (440) 
0.0000

>  <Gold.PLP.Chemscore.Hbond>  (440) 
4.2983

>  <Gold.PLP.Chemscore.Internal.Correction>  (440) 
0.0638

>  <Gold.PLP.Chemscore.Metal>  (440) 
0.0000

>  <Gold.PLP.Fitness>  (440) 
42.6494

>  <Gold.PLP.PLP>  (440) 
-31.5687

>  <Gold.PLP.ligand.clash>  (440) 
0.0000

>  <Gold.PLP.ligand.torsion>  (440) 
0.9390

>  <Gold.PLP.part.buried>  (440) 
-7.2321

>  <Gold.PLP.part.hbond>  (440) 
-8.1755

>  <Gold.PLP.part.metal>  (440) 
0.0000

>  <Gold.PLP.part.nonpolar>  (440) 
-16.3224

>  <Gold.PLP.part.repulsive>  (440) 
0.2507

>  <Gold.Protein.RotatedAtoms>  (440) 


>  <Gold.Protein.RotatedTorsions>  (440) 


>  <Gold.Protein.RotatedWaterAtoms>  (440) 


>  <Gold.Version>  (440) 
5.3.0

>  <PLP.Chemscore.CHOScore>  (440) 


>  <PLP.Chemscore.Hbond>  (440) 


>  <PLP.Chemscore.Internal.Correction>  (440) 


>  <PLP.Chemscore.Metal>  (440) 


>  <PLP.Fitness>  (440) 


>  <PLP.PLP>  (440) 


>  <PLP.ligand.clash>  (440) 


>  <PLP.ligand.torsion>  (440) 


>  <PLP.part.buried>  (440) 


>  <PLP.part.hbond>  (440) 


>  <PLP.part.metal>  (440) 


>  <PLP.part.nonpolar>  (440) 


>  <PLP.part.repulsive>  (440) 


>  <Version>  (440) 


$$$$
440|Compound_249|Compounds_3D_F|sdf|61|dock7|1
     RDKit          3D

 12 11  0  0  0  0  0  0  0  0999 V2000
   -5.5011  -14.8977    8.5511 O   0  0  0  0  0  0  0  0  0  0  0  0
   -6.5749  -15.5620    9.0388 C   0  0  0  0  0  0  0  0  0  0  0  0
   -7.2645  -16.2206    8.2743 O   0  0  0  0  0  0  0  0  0  0  0  0
   -6.8520  -15.3019   10.5319 C   0  0  0  0  0  0  0  0  0  0  0  0
   -6.0085  -14.1969   11.0285 N   0  0  0  0  0  0  0  0  0  0  0  0
   -6.3073  -13.3681   12.0892 C   0  0  0  0  0  0  0  0  0  0  0  0
   -7.3236  -13.4336   12.7722 O   0  0  0  0  0  0  0  0  0  0  0  0
   -5.2359  -12.3038   12.3203 C   0  0  0  0  0  0  0  0  0  0  0  0
   -4.5951  -12.4970   13.6363 N   0  0  0  0  0  0  0  0  0  0  0  0
   -6.6223  -16.5883   11.3379 C   0  0  0  0  0  0  0  0  0  0  0  0
   -8.3299  -14.8476   10.6342 C   0  0  0  0  0  0  0  0  0  0  0  0
   -9.2305  -15.7545   10.0108 O   0  0  0  0  0  0  0  0  0  0  0  0
  1  2  1  0
  2  3  2  0
  2  4  1  0
  4  5  1  0
  4 10  1  0
  4 11  1  0
  5  6  1  0
  6  7  2  0
  6  8  1  0
  8  9  1  0
 11 12  1  0
M  END
>  <Gold.Gold.Protein.RotatedWaterAtoms>  (441) 


>  <Gold.Id.Protein>  (441) 


>  <Gold.PLP.Chemscore.CHOScore>  (441) 
0.0000

>  <Gold.PLP.Chemscore.Hbond>  (441) 
3.9944

>  <Gold.PLP.Chemscore.Internal.Correction>  (441) 
0.0638

>  <Gold.PLP.Chemscore.Metal>  (441) 
0.0000

>  <Gold.PLP.Fitness>  (441) 
37.3677

>  <Gold.PLP.PLP>  (441) 
-27.0564

>  <Gold.PLP.ligand.clash>  (441) 
0.0000

>  <Gold.PLP.ligand.torsion>  (441) 
0.8679

>  <Gold.PLP.part.buried>  (441) 
-7.2601

>  <Gold.PLP.part.hbond>  (441) 
-6.7274

>  <Gold.PLP.part.metal>  (441) 
0.0000

>  <Gold.PLP.part.nonpolar>  (441) 
-14.7860

>  <Gold.PLP.part.repulsive>  (441) 
1.6027

>  <Gold.Protein.RotatedAtoms>  (441) 


>  <Gold.Protein.RotatedTorsions>  (441) 


>  <Gold.Protein.RotatedWaterAtoms>  (441) 


>  <Gold.Version>  (441) 
5.3.0

>  <PLP.Chemscore.CHOScore>  (441) 


>  <PLP.Chemscore.Hbond>  (441) 


>  <PLP.Chemscore.Internal.Correction>  (441) 


>  <PLP.Chemscore.Metal>  (441) 


>  <PLP.Fitness>  (441) 


>  <PLP.PLP>  (441) 


>  <PLP.ligand.clash>  (441) 


>  <PLP.ligand.torsion>  (441) 


>  <PLP.part.buried>  (441) 


>  <PLP.part.hbond>  (441) 


>  <PLP.part.metal>  (441) 


>  <PLP.part.nonpolar>  (441) 


>  <PLP.part.repulsive>  (441) 


>  <Version>  (441) 


$$$$
441|Compound_249|Compounds_3D_F|sdf|61|dock8|1
     RDKit          3D

 12 11  0  0  0  0  0  0  0  0999 V2000
   -3.3188  -16.3110   10.4552 O   0  0  0  0  0  0  0  0  0  0  0  0
   -4.2781  -16.7719   11.2915 C   0  0  0  0  0  0  0  0  0  0  0  0
   -4.0768  -17.8022   11.9174 O   0  0  0  0  0  0  0  0  0  0  0  0
   -5.5861  -15.9584   11.2593 C   0  0  0  0  0  0  0  0  0  0  0  0
   -5.3263  -14.5491   11.6137 N   0  0  0  0  0  0  0  0  0  0  0  0
   -6.2297  -13.6834   12.1931 C   0  0  0  0  0  0  0  0  0  0  0  0
   -7.3840  -13.9658   12.4960 O   0  0  0  0  0  0  0  0  0  0  0  0
   -5.6513  -12.2842   12.3975 C   0  0  0  0  0  0  0  0  0  0  0  0
   -4.5668  -12.3178   13.3988 N   0  0  0  0  0  0  0  0  0  0  0  0
   -6.6191  -16.5920   12.2020 C   0  0  0  0  0  0  0  0  0  0  0  0
   -6.0897  -15.9894    9.7942 C   0  0  0  0  0  0  0  0  0  0  0  0
   -5.2473  -15.2662    8.9056 O   0  0  0  0  0  0  0  0  0  0  0  0
  1  2  1  0
  2  3  2  0
  2  4  1  0
  4  5  1  0
  4 10  1  0
  4 11  1  0
  5  6  1  0
  6  7  2  0
  6  8  1  0
  8  9  1  0
 11 12  1  0
M  END
>  <Gold.Gold.Protein.RotatedWaterAtoms>  (442) 


>  <Gold.Id.Protein>  (442) 


>  <Gold.PLP.Chemscore.CHOScore>  (442) 
0.0000

>  <Gold.PLP.Chemscore.Hbond>  (442) 
4.6978

>  <Gold.PLP.Chemscore.Internal.Correction>  (442) 
0.0638

>  <Gold.PLP.Chemscore.Metal>  (442) 
0.0000

>  <Gold.PLP.Fitness>  (442) 
44.1325

>  <Gold.PLP.PLP>  (442) 
-31.3321

>  <Gold.PLP.ligand.clash>  (442) 
0.0000

>  <Gold.PLP.ligand.torsion>  (442) 
0.6784

>  <Gold.PLP.part.buried>  (442) 
-7.6641

>  <Gold.PLP.part.hbond>  (442) 
-7.5044

>  <Gold.PLP.part.metal>  (442) 
0.0000

>  <Gold.PLP.part.nonpolar>  (442) 
-17.0387

>  <Gold.PLP.part.repulsive>  (442) 
0.2482

>  <Gold.Protein.RotatedAtoms>  (442) 


>  <Gold.Protein.RotatedTorsions>  (442) 


>  <Gold.Protein.RotatedWaterAtoms>  (442) 


>  <Gold.Version>  (442) 
5.3.0

>  <PLP.Chemscore.CHOScore>  (442) 


>  <PLP.Chemscore.Hbond>  (442) 


>  <PLP.Chemscore.Internal.Correction>  (442) 


>  <PLP.Chemscore.Metal>  (442) 


>  <PLP.Fitness>  (442) 


>  <PLP.PLP>  (442) 


>  <PLP.ligand.clash>  (442) 


>  <PLP.ligand.torsion>  (442) 


>  <PLP.part.buried>  (442) 


>  <PLP.part.hbond>  (442) 


>  <PLP.part.metal>  (442) 


>  <PLP.part.nonpolar>  (442) 


>  <PLP.part.repulsive>  (442) 


>  <Version>  (442) 


$$$$
442|Compound_250|Compounds_3D_F|sdf|62|dock1|1
     RDKit          3D

 11 10  0  0  0  0  0  0  0  0999 V2000
   -4.3889  -16.5760    9.2185 O   0  0  0  0  0  0  0  0  0  0  0  0
   -4.1820  -16.7128   10.5441 C   0  0  0  0  0  0  0  0  0  0  0  0
   -3.0534  -16.7001   11.0061 O   0  0  0  0  0  0  0  0  0  0  0  0
   -5.4706  -16.8853   11.3117 C   0  0  0  0  0  0  0  0  0  0  0  0
   -5.1626  -16.9981   12.8020 C   0  0  0  0  0  0  0  0  0  0  0  0
   -6.4014  -15.7079   11.0048 C   0  0  0  0  0  0  0  0  0  0  0  0
   -5.7789  -14.4254   11.2599 N   0  0  0  0  0  0  0  0  0  0  0  0
   -6.3275  -13.4566   12.0722 C   0  0  0  0  0  0  0  0  0  0  0  0
   -7.3912  -13.5766   12.6713 O   0  0  0  0  0  0  0  0  0  0  0  0
   -5.4433  -12.2184   12.2106 C   0  0  0  0  0  0  0  0  0  0  0  0
   -4.6017  -12.3062   13.4180 N   0  0  0  0  0  0  0  0  0  0  0  0
  1  2  1  0
  2  3  2  0
  2  4  1  0
  4  5  1  0
  4  6  1  0
  6  7  1  0
  7  8  1  0
  8  9  2  0
  8 10  1  0
 10 11  1  0
M  END
>  <Gold.Gold.Protein.RotatedWaterAtoms>  (443) 


>  <Gold.Id.Protein>  (443) 


>  <Gold.PLP.Chemscore.CHOScore>  (443) 
0.0000

>  <Gold.PLP.Chemscore.Hbond>  (443) 
3.5143

>  <Gold.PLP.Chemscore.Internal.Correction>  (443) 
0.0226

>  <Gold.PLP.Chemscore.Metal>  (443) 
0.0000

>  <Gold.PLP.Fitness>  (443) 
36.7122

>  <Gold.PLP.PLP>  (443) 
-26.9424

>  <Gold.PLP.ligand.clash>  (443) 
0.0000

>  <Gold.PLP.ligand.torsion>  (443) 
0.3978

>  <Gold.PLP.part.buried>  (443) 
-4.3379

>  <Gold.PLP.part.hbond>  (443) 
-5.9679

>  <Gold.PLP.part.metal>  (443) 
0.0000

>  <Gold.PLP.part.nonpolar>  (443) 
-16.2265

>  <Gold.PLP.part.repulsive>  (443) 
1.4333

>  <Gold.Protein.RotatedAtoms>  (443) 


>  <Gold.Protein.RotatedTorsions>  (443) 


>  <Gold.Protein.RotatedWaterAtoms>  (443) 


>  <Gold.Version>  (443) 
5.3.0

>  <PLP.Chemscore.CHOScore>  (443) 


>  <PLP.Chemscore.Hbond>  (443) 


>  <PLP.Chemscore.Internal.Correction>  (443) 


>  <PLP.Chemscore.Metal>  (443) 


>  <PLP.Fitness>  (443) 


>  <PLP.PLP>  (443) 


>  <PLP.ligand.clash>  (443) 


>  <PLP.ligand.torsion>  (443) 


>  <PLP.part.buried>  (443) 


>  <PLP.part.hbond>  (443) 


>  <PLP.part.metal>  (443) 


>  <PLP.part.nonpolar>  (443) 


>  <PLP.part.repulsive>  (443) 


>  <Version>  (443) 


$$$$
443|Compound_250|Compounds_3D_F|sdf|62|dock2|1
     RDKit          3D

 11 10  0  0  0  0  0  0  0  0999 V2000
   -8.0282  -17.7969   10.4614 O   0  0  0  0  0  0  0  0  0  0  0  0
   -8.3857  -16.8456   11.3480 C   0  0  0  0  0  0  0  0  0  0  0  0
   -9.5534  -16.6918   11.6643 O   0  0  0  0  0  0  0  0  0  0  0  0
   -7.2030  -16.0482   11.8428 C   0  0  0  0  0  0  0  0  0  0  0  0
   -6.1682  -16.9948   12.4442 C   0  0  0  0  0  0  0  0  0  0  0  0
   -6.6271  -15.2288   10.6835 C   0  0  0  0  0  0  0  0  0  0  0  0
   -5.9269  -14.0438   11.1338 N   0  0  0  0  0  0  0  0  0  0  0  0
   -6.4831  -13.0962   11.9657 C   0  0  0  0  0  0  0  0  0  0  0  0
   -7.6208  -13.1563   12.4202 O   0  0  0  0  0  0  0  0  0  0  0  0
   -5.5136  -11.9721   12.3273 C   0  0  0  0  0  0  0  0  0  0  0  0
   -4.5951  -12.3954   13.4001 N   0  0  0  0  0  0  0  0  0  0  0  0
  1  2  1  0
  2  3  2  0
  2  4  1  0
  4  5  1  0
  4  6  1  0
  6  7  1  0
  7  8  1  0
  8  9  2  0
  8 10  1  0
 10 11  1  0
M  END
>  <Gold.Gold.Protein.RotatedWaterAtoms>  (444) 


>  <Gold.Id.Protein>  (444) 


>  <Gold.PLP.Chemscore.CHOScore>  (444) 
0.0000

>  <Gold.PLP.Chemscore.Hbond>  (444) 
3.5904

>  <Gold.PLP.Chemscore.Internal.Correction>  (444) 
0.0178

>  <Gold.PLP.Chemscore.Metal>  (444) 
0.0000

>  <Gold.PLP.Fitness>  (444) 
35.9169

>  <Gold.PLP.PLP>  (444) 
-26.4459

>  <Gold.PLP.ligand.clash>  (444) 
0.0000

>  <Gold.PLP.ligand.torsion>  (444) 
0.6591

>  <Gold.PLP.part.buried>  (444) 
-6.8698

>  <Gold.PLP.part.hbond>  (444) 
-4.8496

>  <Gold.PLP.part.metal>  (444) 
0.0000

>  <Gold.PLP.part.nonpolar>  (444) 
-16.5209

>  <Gold.PLP.part.repulsive>  (444) 
1.7778

>  <Gold.Protein.RotatedAtoms>  (444) 


>  <Gold.Protein.RotatedTorsions>  (444) 


>  <Gold.Protein.RotatedWaterAtoms>  (444) 


>  <Gold.Version>  (444) 
5.3.0

>  <PLP.Chemscore.CHOScore>  (444) 


>  <PLP.Chemscore.Hbond>  (444) 


>  <PLP.Chemscore.Internal.Correction>  (444) 


>  <PLP.Chemscore.Metal>  (444) 


>  <PLP.Fitness>  (444) 


>  <PLP.PLP>  (444) 


>  <PLP.ligand.clash>  (444) 


>  <PLP.ligand.torsion>  (444) 


>  <PLP.part.buried>  (444) 


>  <PLP.part.hbond>  (444) 


>  <PLP.part.metal>  (444) 


>  <PLP.part.nonpolar>  (444) 


>  <PLP.part.repulsive>  (444) 


>  <Version>  (444) 


$$$$
444|Compound_250|Compounds_3D_F|sdf|62|dock3|1
     RDKit          3D

 11 10  0  0  0  0  0  0  0  0999 V2000
  -12.3656  -18.5507   12.5394 O   0  0  0  0  0  0  0  0  0  0  0  0
  -12.4841  -18.5420   11.1960 C   0  0  0  0  0  0  0  0  0  0  0  0
  -11.5835  -18.1190   10.4909 O   0  0  0  0  0  0  0  0  0  0  0  0
  -13.8146  -19.0854   10.7333 C   0  0  0  0  0  0  0  0  0  0  0  0
  -13.8872  -19.0218    9.2104 C   0  0  0  0  0  0  0  0  0  0  0  0
  -13.9849  -20.5148   11.2576 C   0  0  0  0  0  0  0  0  0  0  0  0
  -14.0690  -20.5711   12.7022 N   0  0  0  0  0  0  0  0  0  0  0  0
  -13.7230  -21.6784   13.4462 C   0  0  0  0  0  0  0  0  0  0  0  0
  -13.3003  -22.7272   12.9708 O   0  0  0  0  0  0  0  0  0  0  0  0
  -13.8582  -21.4560   14.9517 C   0  0  0  0  0  0  0  0  0  0  0  0
  -14.4885  -22.6204   15.6002 N   0  0  0  0  0  0  0  0  0  0  0  0
  1  2  1  0
  2  3  2  0
  2  4  1  0
  4  5  1  0
  4  6  1  0
  6  7  1  0
  7  8  1  0
  8  9  2  0
  8 10  1  0
 10 11  1  0
M  END
>  <Gold.Gold.Protein.RotatedWaterAtoms>  (445) 


>  <Gold.Id.Protein>  (445) 


>  <Gold.PLP.Chemscore.CHOScore>  (445) 
0.0000

>  <Gold.PLP.Chemscore.Hbond>  (445) 
4.4934

>  <Gold.PLP.Chemscore.Internal.Correction>  (445) 
0.0178

>  <Gold.PLP.Chemscore.Metal>  (445) 
0.0000

>  <Gold.PLP.Fitness>  (445) 
37.6215

>  <Gold.PLP.PLP>  (445) 
-24.9124

>  <Gold.PLP.ligand.clash>  (445) 
0.0000

>  <Gold.PLP.ligand.torsion>  (445) 
0.3944

>  <Gold.PLP.part.buried>  (445) 
-4.9878

>  <Gold.PLP.part.hbond>  (445) 
-6.0000

>  <Gold.PLP.part.metal>  (445) 
0.0000

>  <Gold.PLP.part.nonpolar>  (445) 
-15.8291

>  <Gold.PLP.part.repulsive>  (445) 
0.0851

>  <Gold.Protein.RotatedAtoms>  (445) 


>  <Gold.Protein.RotatedTorsions>  (445) 


>  <Gold.Protein.RotatedWaterAtoms>  (445) 


>  <Gold.Version>  (445) 
5.3.0

>  <PLP.Chemscore.CHOScore>  (445) 


>  <PLP.Chemscore.Hbond>  (445) 


>  <PLP.Chemscore.Internal.Correction>  (445) 


>  <PLP.Chemscore.Metal>  (445) 


>  <PLP.Fitness>  (445) 


>  <PLP.PLP>  (445) 


>  <PLP.ligand.clash>  (445) 


>  <PLP.ligand.torsion>  (445) 


>  <PLP.part.buried>  (445) 


>  <PLP.part.hbond>  (445) 


>  <PLP.part.metal>  (445) 


>  <PLP.part.nonpolar>  (445) 


>  <PLP.part.repulsive>  (445) 


>  <Version>  (445) 


$$$$
445|Compound_250|Compounds_3D_F|sdf|62|dock4|1
     RDKit          3D

 11 10  0  0  0  0  0  0  0  0999 V2000
   -4.8561  -14.1346   12.1984 O   0  0  0  0  0  0  0  0  0  0  0  0
   -5.7973  -14.9485   11.6783 C   0  0  0  0  0  0  0  0  0  0  0  0
   -5.6143  -16.1521   11.6078 O   0  0  0  0  0  0  0  0  0  0  0  0
   -7.0198  -14.1919   11.2173 C   0  0  0  0  0  0  0  0  0  0  0  0
   -7.9449  -15.1373   10.4562 C   0  0  0  0  0  0  0  0  0  0  0  0
   -7.7119  -13.5647   12.4316 C   0  0  0  0  0  0  0  0  0  0  0  0
   -8.0534  -12.1733   12.2200 N   0  0  0  0  0  0  0  0  0  0  0  0
   -7.1223  -11.1603   12.1414 C   0  0  0  0  0  0  0  0  0  0  0  0
   -5.9102  -11.3256   12.2323 O   0  0  0  0  0  0  0  0  0  0  0  0
   -7.7451   -9.7930   11.8639 C   0  0  0  0  0  0  0  0  0  0  0  0
   -8.5000   -9.8070   10.5976 N   0  0  0  0  0  0  0  0  0  0  0  0
  1  2  1  0
  2  3  2  0
  2  4  1  0
  4  5  1  0
  4  6  1  0
  6  7  1  0
  7  8  1  0
  8  9  2  0
  8 10  1  0
 10 11  1  0
M  END
>  <Gold.Gold.Protein.RotatedWaterAtoms>  (446) 


>  <Gold.Id.Protein>  (446) 


>  <Gold.PLP.Chemscore.CHOScore>  (446) 
0.0000

>  <Gold.PLP.Chemscore.Hbond>  (446) 
1.4460

>  <Gold.PLP.Chemscore.Internal.Correction>  (446) 
0.0178

>  <Gold.PLP.Chemscore.Metal>  (446) 
0.0000

>  <Gold.PLP.Fitness>  (446) 
36.0722

>  <Gold.PLP.PLP>  (446) 
-33.3183

>  <Gold.PLP.ligand.clash>  (446) 
0.0000

>  <Gold.PLP.ligand.torsion>  (446) 
0.8009

>  <Gold.PLP.part.buried>  (446) 
-8.8478

>  <Gold.PLP.part.hbond>  (446) 
-5.1579

>  <Gold.PLP.part.metal>  (446) 
0.0000

>  <Gold.PLP.part.nonpolar>  (446) 
-20.9661

>  <Gold.PLP.part.repulsive>  (446) 
0.5530

>  <Gold.Protein.RotatedAtoms>  (446) 


>  <Gold.Protein.RotatedTorsions>  (446) 


>  <Gold.Protein.RotatedWaterAtoms>  (446) 


>  <Gold.Version>  (446) 
5.3.0

>  <PLP.Chemscore.CHOScore>  (446) 


>  <PLP.Chemscore.Hbond>  (446) 


>  <PLP.Chemscore.Internal.Correction>  (446) 


>  <PLP.Chemscore.Metal>  (446) 


>  <PLP.Fitness>  (446) 


>  <PLP.PLP>  (446) 


>  <PLP.ligand.clash>  (446) 


>  <PLP.ligand.torsion>  (446) 


>  <PLP.part.buried>  (446) 


>  <PLP.part.hbond>  (446) 


>  <PLP.part.metal>  (446) 


>  <PLP.part.nonpolar>  (446) 


>  <PLP.part.repulsive>  (446) 


>  <Version>  (446) 


$$$$
446|Compound_250|Compounds_3D_F|sdf|62|dock5|1
     RDKit          3D

 11 10  0  0  0  0  0  0  0  0999 V2000
   -3.1389  -16.2126   10.8883 O   0  0  0  0  0  0  0  0  0  0  0  0
   -4.1349  -17.0608   11.2158 C   0  0  0  0  0  0  0  0  0  0  0  0
   -3.8927  -18.1965   11.5883 O   0  0  0  0  0  0  0  0  0  0  0  0
   -5.4993  -16.4362   11.0491 C   0  0  0  0  0  0  0  0  0  0  0  0
   -6.5730  -17.5043   11.2364 C   0  0  0  0  0  0  0  0  0  0  0  0
   -5.6525  -15.2858   12.0491 C   0  0  0  0  0  0  0  0  0  0  0  0
   -7.0226  -14.8324   12.1698 N   0  0  0  0  0  0  0  0  0  0  0  0
   -7.4019  -13.5106   12.0791 C   0  0  0  0  0  0  0  0  0  0  0  0
   -6.6277  -12.5805   11.8786 O   0  0  0  0  0  0  0  0  0  0  0  0
   -8.9124  -13.3107   12.1919 C   0  0  0  0  0  0  0  0  0  0  0  0
   -9.5890  -14.5835   12.5017 N   0  0  0  0  0  0  0  0  0  0  0  0
  1  2  1  0
  2  3  2  0
  2  4  1  0
  4  5  1  0
  4  6  1  0
  6  7  1  0
  7  8  1  0
  8  9  2  0
  8 10  1  0
 10 11  1  0
M  END
>  <Gold.Gold.Protein.RotatedWaterAtoms>  (447) 


>  <Gold.Id.Protein>  (447) 


>  <Gold.PLP.Chemscore.CHOScore>  (447) 
0.0000

>  <Gold.PLP.Chemscore.Hbond>  (447) 
3.3760

>  <Gold.PLP.Chemscore.Internal.Correction>  (447) 
0.0178

>  <Gold.PLP.Chemscore.Metal>  (447) 
0.0000

>  <Gold.PLP.Fitness>  (447) 
36.2674

>  <Gold.PLP.PLP>  (447) 
-26.6133

>  <Gold.PLP.ligand.clash>  (447) 
0.0000

>  <Gold.PLP.ligand.torsion>  (447) 
0.2458

>  <Gold.PLP.part.buried>  (447) 
-6.7626

>  <Gold.PLP.part.hbond>  (447) 
-4.0225

>  <Gold.PLP.part.metal>  (447) 
0.0000

>  <Gold.PLP.part.nonpolar>  (447) 
-16.4463

>  <Gold.PLP.part.repulsive>  (447) 
0.2734

>  <Gold.Protein.RotatedAtoms>  (447) 


>  <Gold.Protein.RotatedTorsions>  (447) 


>  <Gold.Protein.RotatedWaterAtoms>  (447) 


>  <Gold.Version>  (447) 
5.3.0

>  <PLP.Chemscore.CHOScore>  (447) 


>  <PLP.Chemscore.Hbond>  (447) 


>  <PLP.Chemscore.Internal.Correction>  (447) 


>  <PLP.Chemscore.Metal>  (447) 


>  <PLP.Fitness>  (447) 


>  <PLP.PLP>  (447) 


>  <PLP.ligand.clash>  (447) 


>  <PLP.ligand.torsion>  (447) 


>  <PLP.part.buried>  (447) 


>  <PLP.part.hbond>  (447) 


>  <PLP.part.metal>  (447) 


>  <PLP.part.nonpolar>  (447) 


>  <PLP.part.repulsive>  (447) 


>  <Version>  (447) 


$$$$
447|Compound_250|Compounds_3D_F|sdf|62|dock6|1
     RDKit          3D

 11 10  0  0  0  0  0  0  0  0999 V2000
   -4.7510  -13.4068   12.4748 O   0  0  0  0  0  0  0  0  0  0  0  0
   -5.9517  -12.8149   12.3116 C   0  0  0  0  0  0  0  0  0  0  0  0
   -6.0708  -11.6048   12.4047 O   0  0  0  0  0  0  0  0  0  0  0  0
   -7.0499  -13.8118   12.0296 C   0  0  0  0  0  0  0  0  0  0  0  0
   -8.3865  -13.0817   11.9351 C   0  0  0  0  0  0  0  0  0  0  0  0
   -6.7196  -14.5746   10.7427 C   0  0  0  0  0  0  0  0  0  0  0  0
   -5.4768  -15.3121   10.8365 N   0  0  0  0  0  0  0  0  0  0  0  0
   -5.3267  -16.4681   11.5717 C   0  0  0  0  0  0  0  0  0  0  0  0
   -6.2250  -17.0007   12.2153 O   0  0  0  0  0  0  0  0  0  0  0  0
   -3.9278  -17.0724   11.4607 C   0  0  0  0  0  0  0  0  0  0  0  0
   -3.0958  -16.3014   10.5189 N   0  0  0  0  0  0  0  0  0  0  0  0
  1  2  1  0
  2  3  2  0
  2  4  1  0
  4  5  1  0
  4  6  1  0
  6  7  1  0
  7  8  1  0
  8  9  2  0
  8 10  1  0
 10 11  1  0
M  END
>  <Gold.Gold.Protein.RotatedWaterAtoms>  (448) 


>  <Gold.Id.Protein>  (448) 


>  <Gold.PLP.Chemscore.CHOScore>  (448) 
0.0000

>  <Gold.PLP.Chemscore.Hbond>  (448) 
2.5112

>  <Gold.PLP.Chemscore.Internal.Correction>  (448) 
0.0178

>  <Gold.PLP.Chemscore.Metal>  (448) 
0.0000

>  <Gold.PLP.Fitness>  (448) 
36.8549

>  <Gold.PLP.PLP>  (448) 
-29.5239

>  <Gold.PLP.ligand.clash>  (448) 
0.0000

>  <Gold.PLP.ligand.torsion>  (448) 
0.1102

>  <Gold.PLP.part.buried>  (448) 
-7.4448

>  <Gold.PLP.part.hbond>  (448) 
-4.1249

>  <Gold.PLP.part.metal>  (448) 
0.0000

>  <Gold.PLP.part.nonpolar>  (448) 
-18.4419

>  <Gold.PLP.part.repulsive>  (448) 
0.4078

>  <Gold.Protein.RotatedAtoms>  (448) 


>  <Gold.Protein.RotatedTorsions>  (448) 


>  <Gold.Protein.RotatedWaterAtoms>  (448) 


>  <Gold.Version>  (448) 
5.3.0

>  <PLP.Chemscore.CHOScore>  (448) 


>  <PLP.Chemscore.Hbond>  (448) 


>  <PLP.Chemscore.Internal.Correction>  (448) 


>  <PLP.Chemscore.Metal>  (448) 


>  <PLP.Fitness>  (448) 


>  <PLP.PLP>  (448) 


>  <PLP.ligand.clash>  (448) 


>  <PLP.ligand.torsion>  (448) 


>  <PLP.part.buried>  (448) 


>  <PLP.part.hbond>  (448) 


>  <PLP.part.metal>  (448) 


>  <PLP.part.nonpolar>  (448) 


>  <PLP.part.repulsive>  (448) 


>  <Version>  (448) 


$$$$
448|Compound_250|Compounds_3D_F|sdf|62|dock7|1
     RDKit          3D

 11 10  0  0  0  0  0  0  0  0999 V2000
   -4.6372  -12.4952   13.1072 O   0  0  0  0  0  0  0  0  0  0  0  0
   -5.8140  -12.2428   12.4986 C   0  0  0  0  0  0  0  0  0  0  0  0
   -6.0707  -11.1307   12.0692 O   0  0  0  0  0  0  0  0  0  0  0  0
   -6.7064  -13.4596   12.4470 C   0  0  0  0  0  0  0  0  0  0  0  0
   -8.1671  -13.0201   12.4898 C   0  0  0  0  0  0  0  0  0  0  0  0
   -6.3858  -14.2663   11.1846 C   0  0  0  0  0  0  0  0  0  0  0  0
   -5.2495  -15.1467   11.3607 N   0  0  0  0  0  0  0  0  0  0  0  0
   -5.1947  -16.1449   12.3094 C   0  0  0  0  0  0  0  0  0  0  0  0
   -6.0994  -16.4016   13.0971 O   0  0  0  0  0  0  0  0  0  0  0  0
   -3.9036  -16.9595   12.2493 C   0  0  0  0  0  0  0  0  0  0  0  0
   -3.1075  -16.5954   11.0631 N   0  0  0  0  0  0  0  0  0  0  0  0
  1  2  1  0
  2  3  2  0
  2  4  1  0
  4  5  1  0
  4  6  1  0
  6  7  1  0
  7  8  1  0
  8  9  2  0
  8 10  1  0
 10 11  1  0
M  END
>  <Gold.Gold.Protein.RotatedWaterAtoms>  (449) 


>  <Gold.Id.Protein>  (449) 


>  <Gold.PLP.Chemscore.CHOScore>  (449) 
0.0000

>  <Gold.PLP.Chemscore.Hbond>  (449) 
3.0000

>  <Gold.PLP.Chemscore.Internal.Correction>  (449) 
0.0178

>  <Gold.PLP.Chemscore.Metal>  (449) 
0.0000

>  <Gold.PLP.Fitness>  (449) 
40.8979

>  <Gold.PLP.PLP>  (449) 
-34.0437

>  <Gold.PLP.ligand.clash>  (449) 
0.0000

>  <Gold.PLP.ligand.torsion>  (449) 
1.0818

>  <Gold.PLP.part.buried>  (449) 
-7.4685

>  <Gold.PLP.part.hbond>  (449) 
-6.7351

>  <Gold.PLP.part.metal>  (449) 
0.0000

>  <Gold.PLP.part.nonpolar>  (449) 
-20.7711

>  <Gold.PLP.part.repulsive>  (449) 
0.4364

>  <Gold.Protein.RotatedAtoms>  (449) 


>  <Gold.Protein.RotatedTorsions>  (449) 


>  <Gold.Protein.RotatedWaterAtoms>  (449) 


>  <Gold.Version>  (449) 
5.3.0

>  <PLP.Chemscore.CHOScore>  (449) 


>  <PLP.Chemscore.Hbond>  (449) 


>  <PLP.Chemscore.Internal.Correction>  (449) 


>  <PLP.Chemscore.Metal>  (449) 


>  <PLP.Fitness>  (449) 


>  <PLP.PLP>  (449) 


>  <PLP.ligand.clash>  (449) 


>  <PLP.ligand.torsion>  (449) 


>  <PLP.part.buried>  (449) 


>  <PLP.part.hbond>  (449) 


>  <PLP.part.metal>  (449) 


>  <PLP.part.nonpolar>  (449) 


>  <PLP.part.repulsive>  (449) 


>  <Version>  (449) 


$$$$
449|Compound_250|Compounds_3D_F|sdf|62|dock8|1
     RDKit          3D

 11 10  0  0  0  0  0  0  0  0999 V2000
  -10.9242  -19.3345   11.0504 O   0  0  0  0  0  0  0  0  0  0  0  0
  -11.8306  -18.4666   11.5443 C   0  0  0  0  0  0  0  0  0  0  0  0
  -11.5017  -17.6041   12.3412 O   0  0  0  0  0  0  0  0  0  0  0  0
  -13.2189  -18.7183   11.0071 C   0  0  0  0  0  0  0  0  0  0  0  0
  -13.2277  -18.4944    9.4977 C   0  0  0  0  0  0  0  0  0  0  0  0
  -13.6534  -20.1394   11.3798 C   0  0  0  0  0  0  0  0  0  0  0  0
  -13.6211  -20.3743   12.8085 N   0  0  0  0  0  0  0  0  0  0  0  0
  -13.6904  -21.6266   13.3797 C   0  0  0  0  0  0  0  0  0  0  0  0
  -13.7772  -22.6729   12.7454 O   0  0  0  0  0  0  0  0  0  0  0  0
  -13.5852  -21.5976   14.9036 C   0  0  0  0  0  0  0  0  0  0  0  0
  -14.7390  -20.8968   15.4965 N   0  0  0  0  0  0  0  0  0  0  0  0
  1  2  1  0
  2  3  2  0
  2  4  1  0
  4  5  1  0
  4  6  1  0
  6  7  1  0
  7  8  1  0
  8  9  2  0
  8 10  1  0
 10 11  1  0
M  END
>  <Gold.Gold.Protein.RotatedWaterAtoms>  (450) 


>  <Gold.Id.Protein>  (450) 


>  <Gold.PLP.Chemscore.CHOScore>  (450) 
0.0000

>  <Gold.PLP.Chemscore.Hbond>  (450) 
5.0000

>  <Gold.PLP.Chemscore.Internal.Correction>  (450) 
0.0178

>  <Gold.PLP.Chemscore.Metal>  (450) 
0.0000

>  <Gold.PLP.Fitness>  (450) 
38.3229

>  <Gold.PLP.PLP>  (450) 
-23.5261

>  <Gold.PLP.ligand.clash>  (450) 
0.0000

>  <Gold.PLP.ligand.torsion>  (450) 
0.1105

>  <Gold.PLP.part.buried>  (450) 
-3.7628

>  <Gold.PLP.part.hbond>  (450) 
-6.0000

>  <Gold.PLP.part.metal>  (450) 
0.0000

>  <Gold.PLP.part.nonpolar>  (450) 
-14.5765

>  <Gold.PLP.part.repulsive>  (450) 
0.1497

>  <Gold.Protein.RotatedAtoms>  (450) 


>  <Gold.Protein.RotatedTorsions>  (450) 


>  <Gold.Protein.RotatedWaterAtoms>  (450) 


>  <Gold.Version>  (450) 
5.3.0

>  <PLP.Chemscore.CHOScore>  (450) 


>  <PLP.Chemscore.Hbond>  (450) 


>  <PLP.Chemscore.Internal.Correction>  (450) 


>  <PLP.Chemscore.Metal>  (450) 


>  <PLP.Fitness>  (450) 


>  <PLP.PLP>  (450) 


>  <PLP.ligand.clash>  (450) 


>  <PLP.ligand.torsion>  (450) 


>  <PLP.part.buried>  (450) 


>  <PLP.part.hbond>  (450) 


>  <PLP.part.metal>  (450) 


>  <PLP.part.nonpolar>  (450) 


>  <PLP.part.repulsive>  (450) 


>  <Version>  (450) 


$$$$
450|Compound_250|Compounds_3D_F|sdf|62|dock9|1
     RDKit          3D

 11 10  0  0  0  0  0  0  0  0999 V2000
   -9.1417  -12.2960   10.9985 O   0  0  0  0  0  0  0  0  0  0  0  0
   -8.6620  -13.4173   11.5741 C   0  0  0  0  0  0  0  0  0  0  0  0
   -9.4069  -14.1953   12.1459 O   0  0  0  0  0  0  0  0  0  0  0  0
   -7.1651  -13.5447   11.4239 C   0  0  0  0  0  0  0  0  0  0  0  0
   -6.5100  -13.4892   12.8010 C   0  0  0  0  0  0  0  0  0  0  0  0
   -6.8418  -14.8478   10.6859 C   0  0  0  0  0  0  0  0  0  0  0  0
   -5.4858  -15.2985   10.9209 N   0  0  0  0  0  0  0  0  0  0  0  0
   -5.1626  -16.3556   11.7439 C   0  0  0  0  0  0  0  0  0  0  0  0
   -5.9825  -17.0319   12.3563 O   0  0  0  0  0  0  0  0  0  0  0  0
   -3.6645  -16.6540   11.7772 C   0  0  0  0  0  0  0  0  0  0  0  0
   -3.1060  -16.6914   10.4132 N   0  0  0  0  0  0  0  0  0  0  0  0
  1  2  1  0
  2  3  2  0
  2  4  1  0
  4  5  1  0
  4  6  1  0
  6  7  1  0
  7  8  1  0
  8  9  2  0
  8 10  1  0
 10 11  1  0
M  END
>  <Gold.Gold.Protein.RotatedWaterAtoms>  (451) 


>  <Gold.Id.Protein>  (451) 


>  <Gold.PLP.Chemscore.CHOScore>  (451) 
0.0000

>  <Gold.PLP.Chemscore.Hbond>  (451) 
2.9280

>  <Gold.PLP.Chemscore.Internal.Correction>  (451) 
0.0140

>  <Gold.PLP.Chemscore.Metal>  (451) 
0.0000

>  <Gold.PLP.Fitness>  (451) 
35.0466

>  <Gold.PLP.PLP>  (451) 
-27.1548

>  <Gold.PLP.ligand.clash>  (451) 
0.0000

>  <Gold.PLP.ligand.torsion>  (451) 
0.4531

>  <Gold.PLP.part.buried>  (451) 
-3.3223

>  <Gold.PLP.part.hbond>  (451) 
-6.1725

>  <Gold.PLP.part.metal>  (451) 
0.0000

>  <Gold.PLP.part.nonpolar>  (451) 
-18.3969

>  <Gold.PLP.part.repulsive>  (451) 
0.2188

>  <Gold.Protein.RotatedAtoms>  (451) 


>  <Gold.Protein.RotatedTorsions>  (451) 


>  <Gold.Protein.RotatedWaterAtoms>  (451) 


>  <Gold.Version>  (451) 
5.3.0

>  <PLP.Chemscore.CHOScore>  (451) 


>  <PLP.Chemscore.Hbond>  (451) 


>  <PLP.Chemscore.Internal.Correction>  (451) 


>  <PLP.Chemscore.Metal>  (451) 


>  <PLP.Fitness>  (451) 


>  <PLP.PLP>  (451) 


>  <PLP.ligand.clash>  (451) 


>  <PLP.ligand.torsion>  (451) 


>  <PLP.part.buried>  (451) 


>  <PLP.part.hbond>  (451) 


>  <PLP.part.metal>  (451) 


>  <PLP.part.nonpolar>  (451) 


>  <PLP.part.repulsive>  (451) 


>  <Version>  (451) 


$$$$
451|Compound_251|Compounds_3D_F|sdf|63|dock1|1
     RDKit          3D

 11 10  0  0  0  0  0  0  0  0999 V2000
   -5.0462  -15.6743    9.0501 O   0  0  0  0  0  0  0  0  0  0  0  0
   -5.8481  -16.0814   10.0504 C   0  0  0  0  0  0  0  0  0  0  0  0
   -6.9429  -16.5751    9.8187 O   0  0  0  0  0  0  0  0  0  0  0  0
   -5.3038  -15.7959   11.4400 C   0  0  0  0  0  0  0  0  0  0  0  0
   -4.8856  -14.4253   11.5000 O   0  0  0  0  0  0  0  0  0  0  0  0
   -6.3633  -16.0368   12.5157 C   0  0  0  0  0  0  0  0  0  0  0  0
   -7.5930  -15.3152   12.2410 N   0  0  0  0  0  0  0  0  0  0  0  0
   -7.7219  -13.9501   12.3688 C   0  0  0  0  0  0  0  0  0  0  0  0
   -6.8109  -13.2020   12.7098 O   0  0  0  0  0  0  0  0  0  0  0  0
   -9.1052  -13.4325   11.9794 C   0  0  0  0  0  0  0  0  0  0  0  0
  -10.1467  -14.0070   12.8505 N   0  0  0  0  0  0  0  0  0  0  0  0
  1  2  1  0
  2  3  2  0
  2  4  1  0
  4  5  1  0
  4  6  1  0
  6  7  1  0
  7  8  1  0
  8  9  2  0
  8 10  1  0
 10 11  1  0
M  END
>  <Gold.Gold.Protein.RotatedWaterAtoms>  (452) 


>  <Gold.Id.Protein>  (452) 


>  <Gold.PLP.Chemscore.CHOScore>  (452) 
0.0000

>  <Gold.PLP.Chemscore.Hbond>  (452) 
3.9760

>  <Gold.PLP.Chemscore.Internal.Correction>  (452) 
0.0397

>  <Gold.PLP.Chemscore.Metal>  (452) 
0.0000

>  <Gold.PLP.Fitness>  (452) 
36.5969

>  <Gold.PLP.PLP>  (452) 
-25.1392

>  <Gold.PLP.ligand.clash>  (452) 
0.0000

>  <Gold.PLP.ligand.torsion>  (452) 
0.2550

>  <Gold.PLP.part.buried>  (452) 
-5.5363

>  <Gold.PLP.part.hbond>  (452) 
-5.5426

>  <Gold.PLP.part.metal>  (452) 
0.0000

>  <Gold.PLP.part.nonpolar>  (452) 
-14.4192

>  <Gold.PLP.part.repulsive>  (452) 
0.2619

>  <Gold.Protein.RotatedAtoms>  (452) 


>  <Gold.Protein.RotatedTorsions>  (452) 


>  <Gold.Protein.RotatedWaterAtoms>  (452) 


>  <Gold.Version>  (452) 
5.3.0

>  <PLP.Chemscore.CHOScore>  (452) 


>  <PLP.Chemscore.Hbond>  (452) 


>  <PLP.Chemscore.Internal.Correction>  (452) 


>  <PLP.Chemscore.Metal>  (452) 


>  <PLP.Fitness>  (452) 


>  <PLP.PLP>  (452) 


>  <PLP.ligand.clash>  (452) 


>  <PLP.ligand.torsion>  (452) 


>  <PLP.part.buried>  (452) 


>  <PLP.part.hbond>  (452) 


>  <PLP.part.metal>  (452) 


>  <PLP.part.nonpolar>  (452) 


>  <PLP.part.repulsive>  (452) 


>  <Version>  (452) 


$$$$
452|Compound_251|Compounds_3D_F|sdf|63|dock2|1
     RDKit          3D

 11 10  0  0  0  0  0  0  0  0999 V2000
  -11.0158  -19.7225   11.8379 O   0  0  0  0  0  0  0  0  0  0  0  0
  -10.7619  -18.4077   11.7115 C   0  0  0  0  0  0  0  0  0  0  0  0
  -11.3891  -17.5802   12.3578 O   0  0  0  0  0  0  0  0  0  0  0  0
   -9.7149  -18.0739   10.6622 C   0  0  0  0  0  0  0  0  0  0  0  0
  -10.3466  -17.3629    9.5887 O   0  0  0  0  0  0  0  0  0  0  0  0
   -8.5995  -17.2038   11.2423 C   0  0  0  0  0  0  0  0  0  0  0  0
   -9.1015  -15.9370   11.7438 N   0  0  0  0  0  0  0  0  0  0  0  0
   -8.4259  -14.7437   11.6160 C   0  0  0  0  0  0  0  0  0  0  0  0
   -7.3424  -14.6236   11.0526 O   0  0  0  0  0  0  0  0  0  0  0  0
   -9.1877  -13.5510   12.1906 C   0  0  0  0  0  0  0  0  0  0  0  0
  -10.2925  -14.0002   13.0574 N   0  0  0  0  0  0  0  0  0  0  0  0
  1  2  1  0
  2  3  2  0
  2  4  1  0
  4  5  1  0
  4  6  1  0
  6  7  1  0
  7  8  1  0
  8  9  2  0
  8 10  1  0
 10 11  1  0
M  END
>  <Gold.Gold.Protein.RotatedWaterAtoms>  (453) 


>  <Gold.Id.Protein>  (453) 


>  <Gold.PLP.Chemscore.CHOScore>  (453) 
0.0000

>  <Gold.PLP.Chemscore.Hbond>  (453) 
3.7680

>  <Gold.PLP.Chemscore.Internal.Correction>  (453) 
0.0325

>  <Gold.PLP.Chemscore.Metal>  (453) 
0.0000

>  <Gold.PLP.Fitness>  (453) 
36.8782

>  <Gold.PLP.PLP>  (453) 
-26.2893

>  <Gold.PLP.ligand.clash>  (453) 
0.0000

>  <Gold.PLP.ligand.torsion>  (453) 
0.3738

>  <Gold.PLP.part.buried>  (453) 
-4.9325

>  <Gold.PLP.part.hbond>  (453) 
-7.0000

>  <Gold.PLP.part.metal>  (453) 
0.0000

>  <Gold.PLP.part.nonpolar>  (453) 
-13.7345

>  <Gold.PLP.part.repulsive>  (453) 
0.2064

>  <Gold.Protein.RotatedAtoms>  (453) 


>  <Gold.Protein.RotatedTorsions>  (453) 


>  <Gold.Protein.RotatedWaterAtoms>  (453) 


>  <Gold.Version>  (453) 
5.3.0

>  <PLP.Chemscore.CHOScore>  (453) 


>  <PLP.Chemscore.Hbond>  (453) 


>  <PLP.Chemscore.Internal.Correction>  (453) 


>  <PLP.Chemscore.Metal>  (453) 


>  <PLP.Fitness>  (453) 


>  <PLP.PLP>  (453) 


>  <PLP.ligand.clash>  (453) 


>  <PLP.ligand.torsion>  (453) 


>  <PLP.part.buried>  (453) 


>  <PLP.part.hbond>  (453) 


>  <PLP.part.metal>  (453) 


>  <PLP.part.nonpolar>  (453) 


>  <PLP.part.repulsive>  (453) 


>  <Version>  (453) 


$$$$
453|Compound_251|Compounds_3D_F|sdf|63|dock3|1
     RDKit          3D

 11 10  0  0  0  0  0  0  0  0999 V2000
  -11.1187  -19.8824   11.9553 O   0  0  0  0  0  0  0  0  0  0  0  0
  -10.9454  -18.5738   11.6973 C   0  0  0  0  0  0  0  0  0  0  0  0
  -11.5600  -17.7216   12.3234 O   0  0  0  0  0  0  0  0  0  0  0  0
  -10.0069  -18.2869   10.5372 C   0  0  0  0  0  0  0  0  0  0  0  0
  -10.7371  -17.6018    9.5104 O   0  0  0  0  0  0  0  0  0  0  0  0
   -8.8300  -17.4136   10.9731 C   0  0  0  0  0  0  0  0  0  0  0  0
   -9.2555  -16.0823   11.3666 N   0  0  0  0  0  0  0  0  0  0  0  0
   -8.4109  -15.1408   11.9116 C   0  0  0  0  0  0  0  0  0  0  0  0
   -7.2127  -15.3213   12.1047 O   0  0  0  0  0  0  0  0  0  0  0  0
   -9.0957  -13.8062   12.1995 C   0  0  0  0  0  0  0  0  0  0  0  0
  -10.2792  -13.9962   13.0579 N   0  0  0  0  0  0  0  0  0  0  0  0
  1  2  1  0
  2  3  2  0
  2  4  1  0
  4  5  1  0
  4  6  1  0
  6  7  1  0
  7  8  1  0
  8  9  2  0
  8 10  1  0
 10 11  1  0
M  END
>  <Gold.Gold.Protein.RotatedWaterAtoms>  (454) 


>  <Gold.Id.Protein>  (454) 


>  <Gold.PLP.Chemscore.CHOScore>  (454) 
0.0000

>  <Gold.PLP.Chemscore.Hbond>  (454) 
4.0000

>  <Gold.PLP.Chemscore.Internal.Correction>  (454) 
0.0325

>  <Gold.PLP.Chemscore.Metal>  (454) 
0.0000

>  <Gold.PLP.Fitness>  (454) 
37.1094

>  <Gold.PLP.PLP>  (454) 
-25.2434

>  <Gold.PLP.ligand.clash>  (454) 
0.0000

>  <Gold.PLP.ligand.torsion>  (454) 
0.0833

>  <Gold.PLP.part.buried>  (454) 
-4.5633

>  <Gold.PLP.part.hbond>  (454) 
-7.0000

>  <Gold.PLP.part.metal>  (454) 
0.0000

>  <Gold.PLP.part.nonpolar>  (454) 
-13.1250

>  <Gold.PLP.part.repulsive>  (454) 
0.1489

>  <Gold.Protein.RotatedAtoms>  (454) 


>  <Gold.Protein.RotatedTorsions>  (454) 


>  <Gold.Protein.RotatedWaterAtoms>  (454) 


>  <Gold.Version>  (454) 
5.3.0

>  <PLP.Chemscore.CHOScore>  (454) 


>  <PLP.Chemscore.Hbond>  (454) 


>  <PLP.Chemscore.Internal.Correction>  (454) 


>  <PLP.Chemscore.Metal>  (454) 


>  <PLP.Fitness>  (454) 


>  <PLP.PLP>  (454) 


>  <PLP.ligand.clash>  (454) 


>  <PLP.ligand.torsion>  (454) 


>  <PLP.part.buried>  (454) 


>  <PLP.part.hbond>  (454) 


>  <PLP.part.metal>  (454) 


>  <PLP.part.nonpolar>  (454) 


>  <PLP.part.repulsive>  (454) 


>  <Version>  (454) 


$$$$
454|Compound_251|Compounds_3D_F|sdf|63|dock4|1
     RDKit          3D

 11 10  0  0  0  0  0  0  0  0999 V2000
   -9.1502  -13.8381   10.7360 O   0  0  0  0  0  0  0  0  0  0  0  0
   -8.1467  -14.2822   11.5138 C   0  0  0  0  0  0  0  0  0  0  0  0
   -8.2434  -15.3370   12.1253 O   0  0  0  0  0  0  0  0  0  0  0  0
   -6.9662  -13.3305   11.6108 C   0  0  0  0  0  0  0  0  0  0  0  0
   -7.4406  -12.0483   12.0447 O   0  0  0  0  0  0  0  0  0  0  0  0
   -5.9223  -13.8344   12.6078 C   0  0  0  0  0  0  0  0  0  0  0  0
   -4.9691  -14.7381   11.9889 N   0  0  0  0  0  0  0  0  0  0  0  0
   -4.9739  -16.1017   12.1815 C   0  0  0  0  0  0  0  0  0  0  0  0
   -5.7908  -16.6950   12.8791 O   0  0  0  0  0  0  0  0  0  0  0  0
   -3.8936  -16.8305   11.3849 C   0  0  0  0  0  0  0  0  0  0  0  0
   -4.0272  -16.5552    9.9427 N   0  0  0  0  0  0  0  0  0  0  0  0
  1  2  1  0
  2  3  2  0
  2  4  1  0
  4  5  1  0
  4  6  1  0
  6  7  1  0
  7  8  1  0
  8  9  2  0
  8 10  1  0
 10 11  1  0
M  END
>  <Gold.Gold.Protein.RotatedWaterAtoms>  (455) 


>  <Gold.Id.Protein>  (455) 


>  <Gold.PLP.Chemscore.CHOScore>  (455) 
0.0000

>  <Gold.PLP.Chemscore.Hbond>  (455) 
3.0000

>  <Gold.PLP.Chemscore.Internal.Correction>  (455) 
0.0299

>  <Gold.PLP.Chemscore.Metal>  (455) 
0.0000

>  <Gold.PLP.Fitness>  (455) 
36.0401

>  <Gold.PLP.PLP>  (455) 
-27.8898

>  <Gold.PLP.ligand.clash>  (455) 
0.0000

>  <Gold.PLP.ligand.torsion>  (455) 
0.4398

>  <Gold.PLP.part.buried>  (455) 
-7.1524

>  <Gold.PLP.part.hbond>  (455) 
-4.4810

>  <Gold.PLP.part.metal>  (455) 
0.0000

>  <Gold.PLP.part.nonpolar>  (455) 
-16.4963

>  <Gold.PLP.part.repulsive>  (455) 
0.2234

>  <Gold.Protein.RotatedAtoms>  (455) 


>  <Gold.Protein.RotatedTorsions>  (455) 


>  <Gold.Protein.RotatedWaterAtoms>  (455) 


>  <Gold.Version>  (455) 
5.3.0

>  <PLP.Chemscore.CHOScore>  (455) 


>  <PLP.Chemscore.Hbond>  (455) 


>  <PLP.Chemscore.Internal.Correction>  (455) 


>  <PLP.Chemscore.Metal>  (455) 


>  <PLP.Fitness>  (455) 


>  <PLP.PLP>  (455) 


>  <PLP.ligand.clash>  (455) 


>  <PLP.ligand.torsion>  (455) 


>  <PLP.part.buried>  (455) 


>  <PLP.part.hbond>  (455) 


>  <PLP.part.metal>  (455) 


>  <PLP.part.nonpolar>  (455) 


>  <PLP.part.repulsive>  (455) 


>  <Version>  (455) 


$$$$
455|Compound_251|Compounds_3D_F|sdf|63|dock5|1
     RDKit          3D

 11 10  0  0  0  0  0  0  0  0999 V2000
   -6.0713  -10.4206   13.1984 O   0  0  0  0  0  0  0  0  0  0  0  0
   -6.4383  -11.3038   12.2527 C   0  0  0  0  0  0  0  0  0  0  0  0
   -7.5141  -11.2023   11.6796 O   0  0  0  0  0  0  0  0  0  0  0  0
   -5.4500  -12.4388   12.0437 C   0  0  0  0  0  0  0  0  0  0  0  0
   -4.4969  -12.4250   13.1154 O   0  0  0  0  0  0  0  0  0  0  0  0
   -6.1533  -13.7963   12.0255 C   0  0  0  0  0  0  0  0  0  0  0  0
   -5.2454  -14.8761   11.6821 N   0  0  0  0  0  0  0  0  0  0  0  0
   -5.2945  -16.1267   12.2566 C   0  0  0  0  0  0  0  0  0  0  0  0
   -6.1177  -16.4635   13.1021 O   0  0  0  0  0  0  0  0  0  0  0  0
   -4.2569  -17.0948   11.6916 C   0  0  0  0  0  0  0  0  0  0  0  0
   -3.2632  -16.3804   10.8696 N   0  0  0  0  0  0  0  0  0  0  0  0
  1  2  1  0
  2  3  2  0
  2  4  1  0
  4  5  1  0
  4  6  1  0
  6  7  1  0
  7  8  1  0
  8  9  2  0
  8 10  1  0
 10 11  1  0
M  END
>  <Gold.Gold.Protein.RotatedWaterAtoms>  (456) 


>  <Gold.Id.Protein>  (456) 


>  <Gold.PLP.Chemscore.CHOScore>  (456) 
0.0000

>  <Gold.PLP.Chemscore.Hbond>  (456) 
3.2607

>  <Gold.PLP.Chemscore.Internal.Correction>  (456) 
0.0244

>  <Gold.PLP.Chemscore.Metal>  (456) 
0.0000

>  <Gold.PLP.Fitness>  (456) 
36.8928

>  <Gold.PLP.PLP>  (456) 
-28.3029

>  <Gold.PLP.ligand.clash>  (456) 
0.0000

>  <Gold.PLP.ligand.torsion>  (456) 
0.6083

>  <Gold.PLP.part.buried>  (456) 
-3.7443

>  <Gold.PLP.part.hbond>  (456) 
-8.8363

>  <Gold.PLP.part.metal>  (456) 
0.0000

>  <Gold.PLP.part.nonpolar>  (456) 
-15.9609

>  <Gold.PLP.part.repulsive>  (456) 
0.3101

>  <Gold.Protein.RotatedAtoms>  (456) 


>  <Gold.Protein.RotatedTorsions>  (456) 


>  <Gold.Protein.RotatedWaterAtoms>  (456) 


>  <Gold.Version>  (456) 
5.3.0

>  <PLP.Chemscore.CHOScore>  (456) 


>  <PLP.Chemscore.Hbond>  (456) 


>  <PLP.Chemscore.Internal.Correction>  (456) 


>  <PLP.Chemscore.Metal>  (456) 


>  <PLP.Fitness>  (456) 


>  <PLP.PLP>  (456) 


>  <PLP.ligand.clash>  (456) 


>  <PLP.ligand.torsion>  (456) 


>  <PLP.part.buried>  (456) 


>  <PLP.part.hbond>  (456) 


>  <PLP.part.metal>  (456) 


>  <PLP.part.nonpolar>  (456) 


>  <PLP.part.repulsive>  (456) 


>  <Version>  (456) 


$$$$
456|Compound_251|Compounds_3D_F|sdf|63|dock6|1
     RDKit          3D

 11 10  0  0  0  0  0  0  0  0999 V2000
   -8.5997  -12.4451   11.2968 O   0  0  0  0  0  0  0  0  0  0  0  0
   -8.7927  -13.6855   11.7799 C   0  0  0  0  0  0  0  0  0  0  0  0
   -9.8307  -13.9832   12.3542 O   0  0  0  0  0  0  0  0  0  0  0  0
   -7.5987  -14.6107   11.6148 C   0  0  0  0  0  0  0  0  0  0  0  0
   -7.3919  -14.8534   10.2165 O   0  0  0  0  0  0  0  0  0  0  0  0
   -6.3287  -13.9947   12.2026 C   0  0  0  0  0  0  0  0  0  0  0  0
   -5.1472  -14.7778   11.8880 N   0  0  0  0  0  0  0  0  0  0  0  0
   -4.9727  -16.0869   12.2784 C   0  0  0  0  0  0  0  0  0  0  0  0
   -5.8007  -16.7311   12.9148 O   0  0  0  0  0  0  0  0  0  0  0  0
   -3.6623  -16.6973   11.7849 C   0  0  0  0  0  0  0  0  0  0  0  0
   -3.4788  -16.4542   10.3424 N   0  0  0  0  0  0  0  0  0  0  0  0
  1  2  1  0
  2  3  2  0
  2  4  1  0
  4  5  1  0
  4  6  1  0
  6  7  1  0
  7  8  1  0
  8  9  2  0
  8 10  1  0
 10 11  1  0
M  END
>  <Gold.Gold.Protein.RotatedWaterAtoms>  (457) 


>  <Gold.Id.Protein>  (457) 


>  <Gold.PLP.Chemscore.CHOScore>  (457) 
0.0000

>  <Gold.PLP.Chemscore.Hbond>  (457) 
3.0000

>  <Gold.PLP.Chemscore.Internal.Correction>  (457) 
0.0244

>  <Gold.PLP.Chemscore.Metal>  (457) 
0.0000

>  <Gold.PLP.Fitness>  (457) 
35.3178

>  <Gold.PLP.PLP>  (457) 
-26.6224

>  <Gold.PLP.ligand.clash>  (457) 
0.0000

>  <Gold.PLP.ligand.torsion>  (457) 
0.1645

>  <Gold.PLP.part.buried>  (457) 
-7.7936

>  <Gold.PLP.part.hbond>  (457) 
-3.3527

>  <Gold.PLP.part.metal>  (457) 
0.0000

>  <Gold.PLP.part.nonpolar>  (457) 
-16.1818

>  <Gold.PLP.part.repulsive>  (457) 
0.2415

>  <Gold.Protein.RotatedAtoms>  (457) 


>  <Gold.Protein.RotatedTorsions>  (457) 


>  <Gold.Protein.RotatedWaterAtoms>  (457) 


>  <Gold.Version>  (457) 
5.3.0

>  <PLP.Chemscore.CHOScore>  (457) 


>  <PLP.Chemscore.Hbond>  (457) 


>  <PLP.Chemscore.Internal.Correction>  (457) 


>  <PLP.Chemscore.Metal>  (457) 


>  <PLP.Fitness>  (457) 


>  <PLP.PLP>  (457) 


>  <PLP.ligand.clash>  (457) 


>  <PLP.ligand.torsion>  (457) 


>  <PLP.part.buried>  (457) 


>  <PLP.part.hbond>  (457) 


>  <PLP.part.metal>  (457) 


>  <PLP.part.nonpolar>  (457) 


>  <PLP.part.repulsive>  (457) 


>  <Version>  (457) 


$$$$
457|Compound_251|Compounds_3D_F|sdf|63|dock7|1
     RDKit          3D

 11 10  0  0  0  0  0  0  0  0999 V2000
  -10.8515  -19.7531   12.1374 O   0  0  0  0  0  0  0  0  0  0  0  0
  -10.7551  -18.4522   11.8094 C   0  0  0  0  0  0  0  0  0  0  0  0
  -11.4021  -17.6027   12.4057 O   0  0  0  0  0  0  0  0  0  0  0  0
   -9.8578  -18.1763   10.6146 C   0  0  0  0  0  0  0  0  0  0  0  0
  -10.6409  -17.5656    9.5797 O   0  0  0  0  0  0  0  0  0  0  0  0
   -8.7084  -17.2379   10.9835 C   0  0  0  0  0  0  0  0  0  0  0  0
   -9.1845  -15.9339   11.4092 N   0  0  0  0  0  0  0  0  0  0  0  0
   -8.3588  -14.9329   11.8703 C   0  0  0  0  0  0  0  0  0  0  0  0
   -7.1384  -15.0313   11.9531 O   0  0  0  0  0  0  0  0  0  0  0  0
   -9.1024  -13.6439   12.2147 C   0  0  0  0  0  0  0  0  0  0  0  0
  -10.2859  -13.9255   13.0476 N   0  0  0  0  0  0  0  0  0  0  0  0
  1  2  1  0
  2  3  2  0
  2  4  1  0
  4  5  1  0
  4  6  1  0
  6  7  1  0
  7  8  1  0
  8  9  2  0
  8 10  1  0
 10 11  1  0
M  END
>  <Gold.Gold.Protein.RotatedWaterAtoms>  (458) 


>  <Gold.Id.Protein>  (458) 


>  <Gold.PLP.Chemscore.CHOScore>  (458) 
0.0000

>  <Gold.PLP.Chemscore.Hbond>  (458) 
3.9760

>  <Gold.PLP.Chemscore.Internal.Correction>  (458) 
0.0244

>  <Gold.PLP.Chemscore.Metal>  (458) 
0.0000

>  <Gold.PLP.Fitness>  (458) 
37.2881

>  <Gold.PLP.PLP>  (458) 
-25.6803

>  <Gold.PLP.ligand.clash>  (458) 
0.0000

>  <Gold.PLP.ligand.torsion>  (458) 
0.1723

>  <Gold.PLP.part.buried>  (458) 
-4.5666

>  <Gold.PLP.part.hbond>  (458) 
-7.0000

>  <Gold.PLP.part.metal>  (458) 
0.0000

>  <Gold.PLP.part.nonpolar>  (458) 
-13.4958

>  <Gold.PLP.part.repulsive>  (458) 
0.1648

>  <Gold.Protein.RotatedAtoms>  (458) 


>  <Gold.Protein.RotatedTorsions>  (458) 


>  <Gold.Protein.RotatedWaterAtoms>  (458) 


>  <Gold.Version>  (458) 
5.3.0

>  <PLP.Chemscore.CHOScore>  (458) 


>  <PLP.Chemscore.Hbond>  (458) 


>  <PLP.Chemscore.Internal.Correction>  (458) 


>  <PLP.Chemscore.Metal>  (458) 


>  <PLP.Fitness>  (458) 


>  <PLP.PLP>  (458) 


>  <PLP.ligand.clash>  (458) 


>  <PLP.ligand.torsion>  (458) 


>  <PLP.part.buried>  (458) 


>  <PLP.part.hbond>  (458) 


>  <PLP.part.metal>  (458) 


>  <PLP.part.nonpolar>  (458) 


>  <PLP.part.repulsive>  (458) 


>  <Version>  (458) 


$$$$
458|Compound_251|Compounds_3D_F|sdf|63|dock8|1
     RDKit          3D

 11 10  0  0  0  0  0  0  0  0999 V2000
  -11.4971  -19.7919   12.1077 O   0  0  0  0  0  0  0  0  0  0  0  0
  -11.2199  -18.5050   11.8315 C   0  0  0  0  0  0  0  0  0  0  0  0
  -11.7159  -17.5992   12.4868 O   0  0  0  0  0  0  0  0  0  0  0  0
  -10.3288  -18.3069   10.6168 C   0  0  0  0  0  0  0  0  0  0  0  0
  -11.0724  -17.6118    9.6064 O   0  0  0  0  0  0  0  0  0  0  0  0
   -9.0838  -17.4900   10.9640 C   0  0  0  0  0  0  0  0  0  0  0  0
   -9.4171  -16.1413   11.3860 N   0  0  0  0  0  0  0  0  0  0  0  0
   -8.4912  -15.2392   11.8608 C   0  0  0  0  0  0  0  0  0  0  0  0
   -7.2908  -15.4735   11.9601 O   0  0  0  0  0  0  0  0  0  0  0  0
   -9.0908  -13.8754   12.1978 C   0  0  0  0  0  0  0  0  0  0  0  0
  -10.2764  -14.0207   13.0619 N   0  0  0  0  0  0  0  0  0  0  0  0
  1  2  1  0
  2  3  2  0
  2  4  1  0
  4  5  1  0
  4  6  1  0
  6  7  1  0
  7  8  1  0
  8  9  2  0
  8 10  1  0
 10 11  1  0
M  END
>  <Gold.Gold.Protein.RotatedWaterAtoms>  (459) 


>  <Gold.Id.Protein>  (459) 


>  <Gold.PLP.Chemscore.CHOScore>  (459) 
0.0000

>  <Gold.PLP.Chemscore.Hbond>  (459) 
4.0000

>  <Gold.PLP.Chemscore.Internal.Correction>  (459) 
0.0244

>  <Gold.PLP.Chemscore.Metal>  (459) 
0.0000

>  <Gold.PLP.Fitness>  (459) 
37.0433

>  <Gold.PLP.PLP>  (459) 
-25.3301

>  <Gold.PLP.ligand.clash>  (459) 
0.0000

>  <Gold.PLP.ligand.torsion>  (459) 
0.1556

>  <Gold.PLP.part.buried>  (459) 
-3.9671

>  <Gold.PLP.part.hbond>  (459) 
-7.0000

>  <Gold.PLP.part.metal>  (459) 
0.0000

>  <Gold.PLP.part.nonpolar>  (459) 
-13.1682

>  <Gold.PLP.part.repulsive>  (459) 
0.1741

>  <Gold.Protein.RotatedAtoms>  (459) 


>  <Gold.Protein.RotatedTorsions>  (459) 


>  <Gold.Protein.RotatedWaterAtoms>  (459) 


>  <Gold.Version>  (459) 
5.3.0

>  <PLP.Chemscore.CHOScore>  (459) 


>  <PLP.Chemscore.Hbond>  (459) 


>  <PLP.Chemscore.Internal.Correction>  (459) 


>  <PLP.Chemscore.Metal>  (459) 


>  <PLP.Fitness>  (459) 


>  <PLP.PLP>  (459) 


>  <PLP.ligand.clash>  (459) 


>  <PLP.ligand.torsion>  (459) 


>  <PLP.part.buried>  (459) 


>  <PLP.part.hbond>  (459) 


>  <PLP.part.metal>  (459) 


>  <PLP.part.nonpolar>  (459) 


>  <PLP.part.repulsive>  (459) 


>  <Version>  (459) 


$$$$
459|Compound_253|Compounds_3D_F|sdf|64|dock1|1
     RDKit          3D

 10 10  0  0  0  0  0  0  0  0999 V2000
   -4.5008  -12.2028   13.3923 N   0  0  0  0  0  0  0  0  0  0  0  0
   -5.6252  -12.2635   12.4381 C   0  0  0  0  0  0  0  0  0  0  0  0
   -5.9658  -13.7148   12.1110 C   0  0  0  0  0  0  0  0  0  0  0  0
   -7.1015  -14.0815   11.8272 O   0  0  0  0  0  0  0  0  0  0  0  0
   -4.8772  -14.5581   12.2235 N   0  0  0  0  0  0  0  0  0  0  0  0
   -4.9250  -16.0180   12.0070 C   0  0  0  0  0  0  0  0  0  0  0  0
   -5.8198  -16.6816   13.0399 C   0  0  0  0  0  0  0  0  0  0  0  0
   -5.2114  -16.4280   10.5488 C   0  0  0  0  0  0  0  0  0  0  0  0
   -4.0593  -17.3082   10.5320 O   0  0  0  0  0  0  0  0  0  0  0  0
   -3.5654  -16.6998   11.7540 C   0  0  0  0  0  0  0  0  0  0  0  0
  1  2  1  0
  2  3  1  0
  3  4  2  0
  3  5  1  0
  5  6  1  0
  6  7  1  0
  6  8  1  0
  6 10  1  0
  8  9  1  0
  9 10  1  0
M  END
>  <Gold.Gold.Protein.RotatedWaterAtoms>  (460) 


>  <Gold.Id.Protein>  (460) 


>  <Gold.PLP.Chemscore.CHOScore>  (460) 
0.0000

>  <Gold.PLP.Chemscore.Hbond>  (460) 
3.0000

>  <Gold.PLP.Chemscore.Internal.Correction>  (460) 
0.2878

>  <Gold.PLP.Chemscore.Metal>  (460) 
0.0000

>  <Gold.PLP.Fitness>  (460) 
36.4059

>  <Gold.PLP.PLP>  (460) 
-28.1765

>  <Gold.PLP.ligand.clash>  (460) 
0.0000

>  <Gold.PLP.ligand.torsion>  (460) 
0.5292

>  <Gold.PLP.part.buried>  (460) 
-5.6898

>  <Gold.PLP.part.hbond>  (460) 
-4.9468

>  <Gold.PLP.part.metal>  (460) 
0.0000

>  <Gold.PLP.part.nonpolar>  (460) 
-18.6903

>  <Gold.PLP.part.repulsive>  (460) 
0.2893

>  <Gold.Protein.RotatedAtoms>  (460) 


>  <Gold.Protein.RotatedTorsions>  (460) 


>  <Gold.Protein.RotatedWaterAtoms>  (460) 


>  <Gold.Version>  (460) 
5.3.0

>  <PLP.Chemscore.CHOScore>  (460) 


>  <PLP.Chemscore.Hbond>  (460) 


>  <PLP.Chemscore.Internal.Correction>  (460) 


>  <PLP.Chemscore.Metal>  (460) 


>  <PLP.Fitness>  (460) 


>  <PLP.PLP>  (460) 


>  <PLP.ligand.clash>  (460) 


>  <PLP.ligand.torsion>  (460) 


>  <PLP.part.buried>  (460) 


>  <PLP.part.hbond>  (460) 


>  <PLP.part.metal>  (460) 


>  <PLP.part.nonpolar>  (460) 


>  <PLP.part.repulsive>  (460) 


>  <Version>  (460) 


$$$$
460|Compound_253|Compounds_3D_F|sdf|64|dock2|1
     RDKit          3D

 10 10  0  0  0  0  0  0  0  0999 V2000
   -4.6000  -12.4999   13.6427 N   0  0  0  0  0  0  0  0  0  0  0  0
   -5.4979  -12.6954   12.4876 C   0  0  0  0  0  0  0  0  0  0  0  0
   -5.8087  -14.1780   12.3022 C   0  0  0  0  0  0  0  0  0  0  0  0
   -6.9447  -14.6330   12.3883 O   0  0  0  0  0  0  0  0  0  0  0  0
   -4.6762  -14.9389   12.0847 N   0  0  0  0  0  0  0  0  0  0  0  0
   -4.6747  -16.4056   11.9141 C   0  0  0  0  0  0  0  0  0  0  0  0
   -5.1168  -17.0923   13.1950 C   0  0  0  0  0  0  0  0  0  0  0  0
   -5.3966  -16.8909   10.6413 C   0  0  0  0  0  0  0  0  0  0  0  0
   -4.2486  -17.6852   10.2495 O   0  0  0  0  0  0  0  0  0  0  0  0
   -3.4266  -16.9962   11.2278 C   0  0  0  0  0  0  0  0  0  0  0  0
  1  2  1  0
  2  3  1  0
  3  4  2  0
  3  5  1  0
  5  6  1  0
  6  7  1  0
  6  8  1  0
  6 10  1  0
  8  9  1  0
  9 10  1  0
M  END
>  <Gold.Gold.Protein.RotatedWaterAtoms>  (461) 


>  <Gold.Id.Protein>  (461) 


>  <Gold.PLP.Chemscore.CHOScore>  (461) 
0.0000

>  <Gold.PLP.Chemscore.Hbond>  (461) 
2.9760

>  <Gold.PLP.Chemscore.Internal.Correction>  (461) 
0.2878

>  <Gold.PLP.Chemscore.Metal>  (461) 
0.0000

>  <Gold.PLP.Fitness>  (461) 
36.0191

>  <Gold.PLP.PLP>  (461) 
-27.1439

>  <Gold.PLP.ligand.clash>  (461) 
0.0000

>  <Gold.PLP.ligand.torsion>  (461) 
0.1703

>  <Gold.PLP.part.buried>  (461) 
-6.0398

>  <Gold.PLP.part.hbond>  (461) 
-5.0000

>  <Gold.PLP.part.metal>  (461) 
0.0000

>  <Gold.PLP.part.nonpolar>  (461) 
-17.4455

>  <Gold.PLP.part.repulsive>  (461) 
0.2841

>  <Gold.Protein.RotatedAtoms>  (461) 


>  <Gold.Protein.RotatedTorsions>  (461) 


>  <Gold.Protein.RotatedWaterAtoms>  (461) 


>  <Gold.Version>  (461) 
5.3.0

>  <PLP.Chemscore.CHOScore>  (461) 


>  <PLP.Chemscore.Hbond>  (461) 


>  <PLP.Chemscore.Internal.Correction>  (461) 


>  <PLP.Chemscore.Metal>  (461) 


>  <PLP.Fitness>  (461) 


>  <PLP.PLP>  (461) 


>  <PLP.ligand.clash>  (461) 


>  <PLP.ligand.torsion>  (461) 


>  <PLP.part.buried>  (461) 


>  <PLP.part.hbond>  (461) 


>  <PLP.part.metal>  (461) 


>  <PLP.part.nonpolar>  (461) 


>  <PLP.part.repulsive>  (461) 


>  <Version>  (461) 


$$$$
461|Compound_253|Compounds_3D_F|sdf|64|dock3|1
     RDKit          3D

 10 10  0  0  0  0  0  0  0  0999 V2000
   -4.5677  -12.2007   13.4083 N   0  0  0  0  0  0  0  0  0  0  0  0
   -5.6307  -12.3752   12.3993 C   0  0  0  0  0  0  0  0  0  0  0  0
   -5.9377  -13.8572   12.2029 C   0  0  0  0  0  0  0  0  0  0  0  0
   -7.0804  -14.3032   12.2029 O   0  0  0  0  0  0  0  0  0  0  0  0
   -4.7975  -14.6282   12.0823 N   0  0  0  0  0  0  0  0  0  0  0  0
   -4.7942  -16.0964   11.9252 C   0  0  0  0  0  0  0  0  0  0  0  0
   -5.8031  -16.7359   12.8638 C   0  0  0  0  0  0  0  0  0  0  0  0
   -4.8851  -16.5720   10.4616 C   0  0  0  0  0  0  0  0  0  0  0  0
   -3.7266  -17.4276   10.6298 O   0  0  0  0  0  0  0  0  0  0  0  0
   -3.4027  -16.7591   11.8771 C   0  0  0  0  0  0  0  0  0  0  0  0
  1  2  1  0
  2  3  1  0
  3  4  2  0
  3  5  1  0
  5  6  1  0
  6  7  1  0
  6  8  1  0
  6 10  1  0
  8  9  1  0
  9 10  1  0
M  END
>  <Gold.Gold.Protein.RotatedWaterAtoms>  (462) 


>  <Gold.Id.Protein>  (462) 


>  <Gold.PLP.Chemscore.CHOScore>  (462) 
0.0000

>  <Gold.PLP.Chemscore.Hbond>  (462) 
3.0000

>  <Gold.PLP.Chemscore.Internal.Correction>  (462) 
0.2878

>  <Gold.PLP.Chemscore.Metal>  (462) 
0.0000

>  <Gold.PLP.Fitness>  (462) 
37.3158

>  <Gold.PLP.PLP>  (462) 
-28.9418

>  <Gold.PLP.ligand.clash>  (462) 
0.0000

>  <Gold.PLP.ligand.torsion>  (462) 
0.4569

>  <Gold.PLP.part.buried>  (462) 
-5.4601

>  <Gold.PLP.part.hbond>  (462) 
-5.0000

>  <Gold.PLP.part.metal>  (462) 
0.0000

>  <Gold.PLP.part.nonpolar>  (462) 
-18.8517

>  <Gold.PLP.part.repulsive>  (462) 
0.3131

>  <Gold.Protein.RotatedAtoms>  (462) 


>  <Gold.Protein.RotatedTorsions>  (462) 


>  <Gold.Protein.RotatedWaterAtoms>  (462) 


>  <Gold.Version>  (462) 
5.3.0

>  <PLP.Chemscore.CHOScore>  (462) 


>  <PLP.Chemscore.Hbond>  (462) 


>  <PLP.Chemscore.Internal.Correction>  (462) 


>  <PLP.Chemscore.Metal>  (462) 


>  <PLP.Fitness>  (462) 


>  <PLP.PLP>  (462) 


>  <PLP.ligand.clash>  (462) 


>  <PLP.ligand.torsion>  (462) 


>  <PLP.part.buried>  (462) 


>  <PLP.part.hbond>  (462) 


>  <PLP.part.metal>  (462) 


>  <PLP.part.nonpolar>  (462) 


>  <PLP.part.repulsive>  (462) 


>  <Version>  (462) 


$$$$
462|Compound_254|Compounds_3D_F|sdf|65|dock1|1
     RDKit          3D

 11 10  0  0  0  0  0  0  0  0999 V2000
   -5.2524  -15.2243    8.8530 O   0  0  0  0  0  0  0  0  0  0  0  0
   -6.2301  -15.6905    9.6640 C   0  0  0  0  0  0  0  0  0  0  0  0
   -7.3051  -16.0323    9.1957 O   0  0  0  0  0  0  0  0  0  0  0  0
   -5.8011  -15.7022   11.1254 C   0  0  0  0  0  0  0  0  0  0  0  0
   -5.4259  -14.3579   11.5394 N   0  0  0  0  0  0  0  0  0  0  0  0
   -6.2442  -13.5077   12.2420 C   0  0  0  0  0  0  0  0  0  0  0  0
   -7.3812  -13.7932   12.6076 O   0  0  0  0  0  0  0  0  0  0  0  0
   -5.6300  -12.1311   12.4835 C   0  0  0  0  0  0  0  0  0  0  0  0
   -4.4822  -12.2223   13.4033 N   0  0  0  0  0  0  0  0  0  0  0  0
   -4.6543  -16.6882   11.3398 C   0  0  0  0  0  0  0  0  0  0  0  0
   -3.4036  -16.0727   11.0343 O   0  0  0  0  0  0  0  0  0  0  0  0
  1  2  1  0
  2  3  2  0
  2  4  1  0
  4  5  1  0
  4 10  1  0
  5  6  1  0
  6  7  2  0
  6  8  1  0
  8  9  1  0
 10 11  1  0
M  END
>  <Gold.Gold.Protein.RotatedWaterAtoms>  (463) 


>  <Gold.Id.Protein>  (463) 


>  <Gold.PLP.Chemscore.CHOScore>  (463) 
0.0000

>  <Gold.PLP.Chemscore.Hbond>  (463) 
4.9464

>  <Gold.PLP.Chemscore.Internal.Correction>  (463) 
0.0311

>  <Gold.PLP.Chemscore.Metal>  (463) 
0.0000

>  <Gold.PLP.Fitness>  (463) 
42.3359

>  <Gold.PLP.PLP>  (463) 
-28.6256

>  <Gold.PLP.ligand.clash>  (463) 
0.0000

>  <Gold.PLP.ligand.torsion>  (463) 
0.5799

>  <Gold.PLP.part.buried>  (463) 
-7.2048

>  <Gold.PLP.part.hbond>  (463) 
-8.0748

>  <Gold.PLP.part.metal>  (463) 
0.0000

>  <Gold.PLP.part.nonpolar>  (463) 
-14.1698

>  <Gold.PLP.part.repulsive>  (463) 
0.2961

>  <Gold.Protein.RotatedAtoms>  (463) 


>  <Gold.Protein.RotatedTorsions>  (463) 


>  <Gold.Protein.RotatedWaterAtoms>  (463) 


>  <Gold.Version>  (463) 
5.3.0

>  <PLP.Chemscore.CHOScore>  (463) 


>  <PLP.Chemscore.Hbond>  (463) 


>  <PLP.Chemscore.Internal.Correction>  (463) 


>  <PLP.Chemscore.Metal>  (463) 


>  <PLP.Fitness>  (463) 


>  <PLP.PLP>  (463) 


>  <PLP.ligand.clash>  (463) 


>  <PLP.ligand.torsion>  (463) 


>  <PLP.part.buried>  (463) 


>  <PLP.part.hbond>  (463) 


>  <PLP.part.metal>  (463) 


>  <PLP.part.nonpolar>  (463) 


>  <PLP.part.repulsive>  (463) 


>  <Version>  (463) 


$$$$
463|Compound_254|Compounds_3D_F|sdf|65|dock2|1
     RDKit          3D

 11 10  0  0  0  0  0  0  0  0999 V2000
   -9.4070  -14.2061   10.3469 O   0  0  0  0  0  0  0  0  0  0  0  0
   -8.9873  -13.6378   11.5010 C   0  0  0  0  0  0  0  0  0  0  0  0
   -9.6809  -13.7017   12.5043 O   0  0  0  0  0  0  0  0  0  0  0  0
   -7.6331  -12.9589   11.3425 C   0  0  0  0  0  0  0  0  0  0  0  0
   -6.6062  -13.7469   12.0087 N   0  0  0  0  0  0  0  0  0  0  0  0
   -6.1590  -14.9679   11.5666 C   0  0  0  0  0  0  0  0  0  0  0  0
   -6.5707  -15.5252   10.5527 O   0  0  0  0  0  0  0  0  0  0  0  0
   -5.1297  -15.6119   12.4920 C   0  0  0  0  0  0  0  0  0  0  0  0
   -3.8564  -15.8371   11.7849 N   0  0  0  0  0  0  0  0  0  0  0  0
   -7.6803  -11.5338   11.8902 C   0  0  0  0  0  0  0  0  0  0  0  0
   -6.4337  -10.8742   11.6724 O   0  0  0  0  0  0  0  0  0  0  0  0
  1  2  1  0
  2  3  2  0
  2  4  1  0
  4  5  1  0
  4 10  1  0
  5  6  1  0
  6  7  2  0
  6  8  1  0
  8  9  1  0
 10 11  1  0
M  END
>  <Gold.Gold.Protein.RotatedWaterAtoms>  (464) 


>  <Gold.Id.Protein>  (464) 


>  <Gold.PLP.Chemscore.CHOScore>  (464) 
0.0000

>  <Gold.PLP.Chemscore.Hbond>  (464) 
2.7424

>  <Gold.PLP.Chemscore.Internal.Correction>  (464) 
0.0270

>  <Gold.PLP.Chemscore.Metal>  (464) 
0.0000

>  <Gold.PLP.Fitness>  (464) 
34.6485

>  <Gold.PLP.PLP>  (464) 
-27.1461

>  <Gold.PLP.ligand.clash>  (464) 
0.0000

>  <Gold.PLP.ligand.torsion>  (464) 
0.3759

>  <Gold.PLP.part.buried>  (464) 
-4.6329

>  <Gold.PLP.part.hbond>  (464) 
-6.0078

>  <Gold.PLP.part.metal>  (464) 
0.0000

>  <Gold.PLP.part.nonpolar>  (464) 
-16.4317

>  <Gold.PLP.part.repulsive>  (464) 
0.2893

>  <Gold.Protein.RotatedAtoms>  (464) 


>  <Gold.Protein.RotatedTorsions>  (464) 


>  <Gold.Protein.RotatedWaterAtoms>  (464) 


>  <Gold.Version>  (464) 
5.3.0

>  <PLP.Chemscore.CHOScore>  (464) 


>  <PLP.Chemscore.Hbond>  (464) 


>  <PLP.Chemscore.Internal.Correction>  (464) 


>  <PLP.Chemscore.Metal>  (464) 


>  <PLP.Fitness>  (464) 


>  <PLP.PLP>  (464) 


>  <PLP.ligand.clash>  (464) 


>  <PLP.ligand.torsion>  (464) 


>  <PLP.part.buried>  (464) 


>  <PLP.part.hbond>  (464) 


>  <PLP.part.metal>  (464) 


>  <PLP.part.nonpolar>  (464) 


>  <PLP.part.repulsive>  (464) 


>  <Version>  (464) 


$$$$
464|Compound_254|Compounds_3D_F|sdf|65|dock3|1
     RDKit          3D

 11 10  0  0  0  0  0  0  0  0999 V2000
   -5.2024  -15.3300    9.0482 O   0  0  0  0  0  0  0  0  0  0  0  0
   -6.0775  -15.9707    9.8573 C   0  0  0  0  0  0  0  0  0  0  0  0
   -7.0170  -16.5876    9.3791 O   0  0  0  0  0  0  0  0  0  0  0  0
   -5.7266  -15.7952   11.3290 C   0  0  0  0  0  0  0  0  0  0  0  0
   -5.4326  -14.3957   11.6017 N   0  0  0  0  0  0  0  0  0  0  0  0
   -6.2812  -13.5409   12.2616 C   0  0  0  0  0  0  0  0  0  0  0  0
   -7.3793  -13.8673   12.7038 O   0  0  0  0  0  0  0  0  0  0  0  0
   -5.7583  -12.1093   12.3487 C   0  0  0  0  0  0  0  0  0  0  0  0
   -4.5297  -12.0477   13.1604 N   0  0  0  0  0  0  0  0  0  0  0  0
   -4.5511  -16.6928   11.7108 C   0  0  0  0  0  0  0  0  0  0  0  0
   -3.4000  -16.3646   10.9339 O   0  0  0  0  0  0  0  0  0  0  0  0
  1  2  1  0
  2  3  2  0
  2  4  1  0
  4  5  1  0
  4 10  1  0
  5  6  1  0
  6  7  2  0
  6  8  1  0
  8  9  1  0
 10 11  1  0
M  END
>  <Gold.Gold.Protein.RotatedWaterAtoms>  (465) 


>  <Gold.Id.Protein>  (465) 


>  <Gold.PLP.Chemscore.CHOScore>  (465) 
0.0000

>  <Gold.PLP.Chemscore.Hbond>  (465) 
4.9277

>  <Gold.PLP.Chemscore.Internal.Correction>  (465) 
0.0270

>  <Gold.PLP.Chemscore.Metal>  (465) 
0.0000

>  <Gold.PLP.Fitness>  (465) 
40.9782

>  <Gold.PLP.PLP>  (465) 
-27.2433

>  <Gold.PLP.ligand.clash>  (465) 
0.0000

>  <Gold.PLP.ligand.torsion>  (465) 
0.5377

>  <Gold.PLP.part.buried>  (465) 
-6.9872

>  <Gold.PLP.part.hbond>  (465) 
-7.7586

>  <Gold.PLP.part.metal>  (465) 
0.0000

>  <Gold.PLP.part.nonpolar>  (465) 
-14.0799

>  <Gold.PLP.part.repulsive>  (465) 
0.2524

>  <Gold.Protein.RotatedAtoms>  (465) 


>  <Gold.Protein.RotatedTorsions>  (465) 


>  <Gold.Protein.RotatedWaterAtoms>  (465) 


>  <Gold.Version>  (465) 
5.3.0

>  <PLP.Chemscore.CHOScore>  (465) 


>  <PLP.Chemscore.Hbond>  (465) 


>  <PLP.Chemscore.Internal.Correction>  (465) 


>  <PLP.Chemscore.Metal>  (465) 


>  <PLP.Fitness>  (465) 


>  <PLP.PLP>  (465) 


>  <PLP.ligand.clash>  (465) 


>  <PLP.ligand.torsion>  (465) 


>  <PLP.part.buried>  (465) 


>  <PLP.part.hbond>  (465) 


>  <PLP.part.metal>  (465) 


>  <PLP.part.nonpolar>  (465) 


>  <PLP.part.repulsive>  (465) 


>  <Version>  (465) 


$$$$
465|Compound_254|Compounds_3D_F|sdf|65|dock4|1
     RDKit          3D

 11 10  0  0  0  0  0  0  0  0999 V2000
   -5.2012  -15.3549    8.8066 O   0  0  0  0  0  0  0  0  0  0  0  0
   -5.9962  -16.0503    9.6524 C   0  0  0  0  0  0  0  0  0  0  0  0
   -7.0049  -16.5986    9.2355 O   0  0  0  0  0  0  0  0  0  0  0  0
   -5.4701  -16.0226   11.0815 C   0  0  0  0  0  0  0  0  0  0  0  0
   -5.2060  -14.6483   11.4826 N   0  0  0  0  0  0  0  0  0  0  0  0
   -6.0999  -13.8537   12.1578 C   0  0  0  0  0  0  0  0  0  0  0  0
   -7.2187  -14.2201   12.5067 O   0  0  0  0  0  0  0  0  0  0  0  0
   -5.5967  -12.4313   12.3903 C   0  0  0  0  0  0  0  0  0  0  0  0
   -4.5187  -12.4134   13.3950 N   0  0  0  0  0  0  0  0  0  0  0  0
   -4.2173  -16.8872   11.2086 C   0  0  0  0  0  0  0  0  0  0  0  0
   -3.1558  -16.3458   10.4235 O   0  0  0  0  0  0  0  0  0  0  0  0
  1  2  1  0
  2  3  2  0
  2  4  1  0
  4  5  1  0
  4 10  1  0
  5  6  1  0
  6  7  2  0
  6  8  1  0
  8  9  1  0
 10 11  1  0
M  END
>  <Gold.Gold.Protein.RotatedWaterAtoms>  (466) 


>  <Gold.Id.Protein>  (466) 


>  <Gold.PLP.Chemscore.CHOScore>  (466) 
0.0000

>  <Gold.PLP.Chemscore.Hbond>  (466) 
5.3033

>  <Gold.PLP.Chemscore.Internal.Correction>  (466) 
0.0270

>  <Gold.PLP.Chemscore.Metal>  (466) 
0.0000

>  <Gold.PLP.Fitness>  (466) 
41.5665

>  <Gold.PLP.PLP>  (466) 
-26.9011

>  <Gold.PLP.ligand.clash>  (466) 
0.0000

>  <Gold.PLP.ligand.torsion>  (466) 
0.6358

>  <Gold.PLP.part.buried>  (466) 
-6.8170

>  <Gold.PLP.part.hbond>  (466) 
-7.6518

>  <Gold.PLP.part.metal>  (466) 
0.0000

>  <Gold.PLP.part.nonpolar>  (466) 
-13.7243

>  <Gold.PLP.part.repulsive>  (466) 
0.2574

>  <Gold.Protein.RotatedAtoms>  (466) 


>  <Gold.Protein.RotatedTorsions>  (466) 


>  <Gold.Protein.RotatedWaterAtoms>  (466) 


>  <Gold.Version>  (466) 
5.3.0

>  <PLP.Chemscore.CHOScore>  (466) 


>  <PLP.Chemscore.Hbond>  (466) 


>  <PLP.Chemscore.Internal.Correction>  (466) 


>  <PLP.Chemscore.Metal>  (466) 


>  <PLP.Fitness>  (466) 


>  <PLP.PLP>  (466) 


>  <PLP.ligand.clash>  (466) 


>  <PLP.ligand.torsion>  (466) 


>  <PLP.part.buried>  (466) 


>  <PLP.part.hbond>  (466) 


>  <PLP.part.metal>  (466) 


>  <PLP.part.nonpolar>  (466) 


>  <PLP.part.repulsive>  (466) 


>  <Version>  (466) 


$$$$
466|Compound_259|Compounds_3D_F|sdf|66|dock1|1
     RDKit          3D

 11 11  0  0  0  0  0  0  0  0999 V2000
  -10.2525  -14.1044   13.0063 N   0  0  0  0  0  0  0  0  0  0  0  0
   -9.3156  -13.2943   12.2069 C   0  0  0  0  0  0  0  0  0  0  0  0
   -8.0317  -14.0748   11.9325 C   0  0  0  0  0  0  0  0  0  0  0  0
   -6.9238  -13.6706   12.2714 O   0  0  0  0  0  0  0  0  0  0  0  0
   -8.2506  -15.2829   11.3119 N   0  0  0  0  0  0  0  0  0  0  0  0
   -7.1831  -16.2123   10.9963 C   0  0  0  0  0  0  0  0  0  0  0  0
   -6.0998  -15.5020   10.2301 C   0  0  0  0  0  0  0  0  0  0  0  0
   -6.1690  -15.1071    9.0763 O   0  0  0  0  0  0  0  0  0  0  0  0
   -5.0590  -15.2733   11.0959 N   0  0  0  0  0  0  0  0  0  0  0  0
   -5.3313  -15.7605   12.3918 O   0  0  0  0  0  0  0  0  0  0  0  0
   -6.4019  -16.6982   12.2100 C   0  0  0  0  0  0  0  0  0  0  0  0
  1  2  1  0
  2  3  1  0
  3  4  2  0
  3  5  1  0
  5  6  1  0
  6  7  1  0
  6 11  1  0
  7  8  2  0
  7  9  1  0
  9 10  1  0
 10 11  1  0
M  END
>  <Gold.Gold.Protein.RotatedWaterAtoms>  (467) 


>  <Gold.Id.Protein>  (467) 


>  <Gold.PLP.Chemscore.CHOScore>  (467) 
0.0000

>  <Gold.PLP.Chemscore.Hbond>  (467) 
3.9840

>  <Gold.PLP.Chemscore.Internal.Correction>  (467) 
0.0325

>  <Gold.PLP.Chemscore.Metal>  (467) 
0.0000

>  <Gold.PLP.Fitness>  (467) 
35.8419

>  <Gold.PLP.PLP>  (467) 
-23.9327

>  <Gold.PLP.ligand.clash>  (467) 
0.0000

>  <Gold.PLP.ligand.torsion>  (467) 
0.0376

>  <Gold.PLP.part.buried>  (467) 
-6.1863

>  <Gold.PLP.part.hbond>  (467) 
-5.0000

>  <Gold.PLP.part.metal>  (467) 
0.0000

>  <Gold.PLP.part.nonpolar>  (467) 
-13.0406

>  <Gold.PLP.part.repulsive>  (467) 
0.5347

>  <Gold.Protein.RotatedAtoms>  (467) 


>  <Gold.Protein.RotatedTorsions>  (467) 


>  <Gold.Protein.RotatedWaterAtoms>  (467) 


>  <Gold.Version>  (467) 
5.3.0

>  <PLP.Chemscore.CHOScore>  (467) 


>  <PLP.Chemscore.Hbond>  (467) 


>  <PLP.Chemscore.Internal.Correction>  (467) 


>  <PLP.Chemscore.Metal>  (467) 


>  <PLP.Fitness>  (467) 


>  <PLP.PLP>  (467) 


>  <PLP.ligand.clash>  (467) 


>  <PLP.ligand.torsion>  (467) 


>  <PLP.part.buried>  (467) 


>  <PLP.part.hbond>  (467) 


>  <PLP.part.metal>  (467) 


>  <PLP.part.nonpolar>  (467) 


>  <PLP.part.repulsive>  (467) 


>  <Version>  (467) 


$$$$
467|Compound_259|Compounds_3D_F|sdf|66|dock2|1
     RDKit          3D

 11 11  0  0  0  0  0  0  0  0999 V2000
  -10.1676  -14.0134   12.8586 N   0  0  0  0  0  0  0  0  0  0  0  0
   -9.1211  -13.1823   12.2364 C   0  0  0  0  0  0  0  0  0  0  0  0
   -7.8798  -14.0200   11.9355 C   0  0  0  0  0  0  0  0  0  0  0  0
   -6.7494  -13.6730   12.2630 O   0  0  0  0  0  0  0  0  0  0  0  0
   -8.1647  -15.2092   11.3054 N   0  0  0  0  0  0  0  0  0  0  0  0
   -7.1474  -16.1849   10.9649 C   0  0  0  0  0  0  0  0  0  0  0  0
   -6.0570  -15.5250   10.1645 C   0  0  0  0  0  0  0  0  0  0  0  0
   -6.1420  -15.1325    9.0109 O   0  0  0  0  0  0  0  0  0  0  0  0
   -4.9831  -15.3375   10.9993 N   0  0  0  0  0  0  0  0  0  0  0  0
   -5.2391  -15.8070   12.3050 O   0  0  0  0  0  0  0  0  0  0  0  0
   -6.3535  -16.6986   12.1587 C   0  0  0  0  0  0  0  0  0  0  0  0
  1  2  1  0
  2  3  1  0
  3  4  2  0
  3  5  1  0
  5  6  1  0
  6  7  1  0
  6 11  1  0
  7  8  2  0
  7  9  1  0
  9 10  1  0
 10 11  1  0
M  END
>  <Gold.Gold.Protein.RotatedWaterAtoms>  (468) 


>  <Gold.Id.Protein>  (468) 


>  <Gold.PLP.Chemscore.CHOScore>  (468) 
0.0000

>  <Gold.PLP.Chemscore.Hbond>  (468) 
4.0000

>  <Gold.PLP.Chemscore.Internal.Correction>  (468) 
0.0325

>  <Gold.PLP.Chemscore.Metal>  (468) 
0.0000

>  <Gold.PLP.Fitness>  (468) 
35.4609

>  <Gold.PLP.PLP>  (468) 
-23.7069

>  <Gold.PLP.ligand.clash>  (468) 
0.0000

>  <Gold.PLP.ligand.torsion>  (468) 
0.1392

>  <Gold.PLP.part.buried>  (468) 
-6.0939

>  <Gold.PLP.part.hbond>  (468) 
-5.0000

>  <Gold.PLP.part.metal>  (468) 
0.0000

>  <Gold.PLP.part.nonpolar>  (468) 
-13.0561

>  <Gold.PLP.part.repulsive>  (468) 
0.5684

>  <Gold.Protein.RotatedAtoms>  (468) 


>  <Gold.Protein.RotatedTorsions>  (468) 


>  <Gold.Protein.RotatedWaterAtoms>  (468) 


>  <Gold.Version>  (468) 
5.3.0

>  <PLP.Chemscore.CHOScore>  (468) 


>  <PLP.Chemscore.Hbond>  (468) 


>  <PLP.Chemscore.Internal.Correction>  (468) 


>  <PLP.Chemscore.Metal>  (468) 


>  <PLP.Fitness>  (468) 


>  <PLP.PLP>  (468) 


>  <PLP.ligand.clash>  (468) 


>  <PLP.ligand.torsion>  (468) 


>  <PLP.part.buried>  (468) 


>  <PLP.part.hbond>  (468) 


>  <PLP.part.metal>  (468) 


>  <PLP.part.nonpolar>  (468) 


>  <PLP.part.repulsive>  (468) 


>  <Version>  (468) 


$$$$
468|Compound_259|Compounds_3D_F|sdf|66|dock3|1
     RDKit          3D

 11 11  0  0  0  0  0  0  0  0999 V2000
  -15.0200  -21.7967   14.6052 N   0  0  0  0  0  0  0  0  0  0  0  0
  -13.7168  -21.2090   14.9649 C   0  0  0  0  0  0  0  0  0  0  0  0
  -12.9420  -20.8144   13.7092 C   0  0  0  0  0  0  0  0  0  0  0  0
  -11.8556  -21.3049   13.4180 O   0  0  0  0  0  0  0  0  0  0  0  0
  -13.6027  -19.8950   12.9278 N   0  0  0  0  0  0  0  0  0  0  0  0
  -13.0782  -19.4109   11.6654 C   0  0  0  0  0  0  0  0  0  0  0  0
  -11.7796  -18.6867   11.8980 C   0  0  0  0  0  0  0  0  0  0  0  0
  -11.6440  -17.5971   12.4330 O   0  0  0  0  0  0  0  0  0  0  0  0
  -10.7618  -19.5207   11.5057 N   0  0  0  0  0  0  0  0  0  0  0  0
  -11.2449  -20.7567   11.0266 O   0  0  0  0  0  0  0  0  0  0  0  0
  -12.6243  -20.5124   10.7167 C   0  0  0  0  0  0  0  0  0  0  0  0
  1  2  1  0
  2  3  1  0
  3  4  2  0
  3  5  1  0
  5  6  1  0
  6  7  1  0
  6 11  1  0
  7  8  2  0
  7  9  1  0
  9 10  1  0
 10 11  1  0
M  END
>  <Gold.Gold.Protein.RotatedWaterAtoms>  (469) 


>  <Gold.Id.Protein>  (469) 


>  <Gold.PLP.Chemscore.CHOScore>  (469) 
0.0000

>  <Gold.PLP.Chemscore.Hbond>  (469) 
5.0073

>  <Gold.PLP.Chemscore.Internal.Correction>  (469) 
0.0325

>  <Gold.PLP.Chemscore.Metal>  (469) 
0.0000

>  <Gold.PLP.Fitness>  (469) 
34.9178

>  <Gold.PLP.PLP>  (469) 
-19.9725

>  <Gold.PLP.ligand.clash>  (469) 
0.0000

>  <Gold.PLP.ligand.torsion>  (469) 
0.0545

>  <Gold.PLP.part.buried>  (469) 
-4.0353

>  <Gold.PLP.part.hbond>  (469) 
-6.0000

>  <Gold.PLP.part.metal>  (469) 
0.0000

>  <Gold.PLP.part.nonpolar>  (469) 
-9.6506

>  <Gold.PLP.part.repulsive>  (469) 
0.1715

>  <Gold.Protein.RotatedAtoms>  (469) 


>  <Gold.Protein.RotatedTorsions>  (469) 


>  <Gold.Protein.RotatedWaterAtoms>  (469) 


>  <Gold.Version>  (469) 
5.3.0

>  <PLP.Chemscore.CHOScore>  (469) 


>  <PLP.Chemscore.Hbond>  (469) 


>  <PLP.Chemscore.Internal.Correction>  (469) 


>  <PLP.Chemscore.Metal>  (469) 


>  <PLP.Fitness>  (469) 


>  <PLP.PLP>  (469) 


>  <PLP.ligand.clash>  (469) 


>  <PLP.ligand.torsion>  (469) 


>  <PLP.part.buried>  (469) 


>  <PLP.part.hbond>  (469) 


>  <PLP.part.metal>  (469) 


>  <PLP.part.nonpolar>  (469) 


>  <PLP.part.repulsive>  (469) 


>  <Version>  (469) 


$$$$
469|Compound_259|Compounds_3D_F|sdf|66|dock4|1
     RDKit          3D

 11 11  0  0  0  0  0  0  0  0999 V2000
  -14.5868  -20.7542   14.9768 N   0  0  0  0  0  0  0  0  0  0  0  0
  -13.5301  -21.5111   14.2817 C   0  0  0  0  0  0  0  0  0  0  0  0
  -13.0059  -20.7225   13.0832 C   0  0  0  0  0  0  0  0  0  0  0  0
  -12.0434  -21.0896   12.4166 O   0  0  0  0  0  0  0  0  0  0  0  0
  -13.7442  -19.5948   12.8080 N   0  0  0  0  0  0  0  0  0  0  0  0
  -13.4589  -18.7193   11.6878 C   0  0  0  0  0  0  0  0  0  0  0  0
  -12.0020  -18.3419   11.6949 C   0  0  0  0  0  0  0  0  0  0  0  0
  -11.4518  -17.5937   12.4882 O   0  0  0  0  0  0  0  0  0  0  0  0
  -11.3763  -19.0790   10.7199 N   0  0  0  0  0  0  0  0  0  0  0  0
  -12.2733  -19.9332   10.0444 O   0  0  0  0  0  0  0  0  0  0  0  0
  -13.5721  -19.3931   10.3268 C   0  0  0  0  0  0  0  0  0  0  0  0
  1  2  1  0
  2  3  1  0
  3  4  2  0
  3  5  1  0
  5  6  1  0
  6  7  1  0
  6 11  1  0
  7  8  2  0
  7  9  1  0
  9 10  1  0
 10 11  1  0
M  END
>  <Gold.Gold.Protein.RotatedWaterAtoms>  (470) 


>  <Gold.Id.Protein>  (470) 


>  <Gold.PLP.Chemscore.CHOScore>  (470) 
0.0000

>  <Gold.PLP.Chemscore.Hbond>  (470) 
4.8000

>  <Gold.PLP.Chemscore.Internal.Correction>  (470) 
0.0325

>  <Gold.PLP.Chemscore.Metal>  (470) 
0.0000

>  <Gold.PLP.Fitness>  (470) 
34.3896

>  <Gold.PLP.PLP>  (470) 
-20.1508

>  <Gold.PLP.ligand.clash>  (470) 
0.0000

>  <Gold.PLP.ligand.torsion>  (470) 
0.0968

>  <Gold.PLP.part.buried>  (470) 
-4.0698

>  <Gold.PLP.part.hbond>  (470) 
-5.0000

>  <Gold.PLP.part.metal>  (470) 
0.0000

>  <Gold.PLP.part.nonpolar>  (470) 
-11.8468

>  <Gold.PLP.part.repulsive>  (470) 
0.1834

>  <Gold.Protein.RotatedAtoms>  (470) 


>  <Gold.Protein.RotatedTorsions>  (470) 


>  <Gold.Protein.RotatedWaterAtoms>  (470) 


>  <Gold.Version>  (470) 
5.3.0

>  <PLP.Chemscore.CHOScore>  (470) 


>  <PLP.Chemscore.Hbond>  (470) 


>  <PLP.Chemscore.Internal.Correction>  (470) 


>  <PLP.Chemscore.Metal>  (470) 


>  <PLP.Fitness>  (470) 


>  <PLP.PLP>  (470) 


>  <PLP.ligand.clash>  (470) 


>  <PLP.ligand.torsion>  (470) 


>  <PLP.part.buried>  (470) 


>  <PLP.part.hbond>  (470) 


>  <PLP.part.metal>  (470) 


>  <PLP.part.nonpolar>  (470) 


>  <PLP.part.repulsive>  (470) 


>  <Version>  (470) 


$$$$
470|Compound_259|Compounds_3D_F|sdf|66|dock5|1
     RDKit          3D

 11 11  0  0  0  0  0  0  0  0999 V2000
  -14.9804  -21.8120   14.5295 N   0  0  0  0  0  0  0  0  0  0  0  0
  -13.7632  -21.0850   14.9330 C   0  0  0  0  0  0  0  0  0  0  0  0
  -12.9970  -20.5992   13.7042 C   0  0  0  0  0  0  0  0  0  0  0  0
  -11.8535  -20.9630   13.4482 O   0  0  0  0  0  0  0  0  0  0  0  0
  -13.7310  -19.7555   12.9029 N   0  0  0  0  0  0  0  0  0  0  0  0
  -13.2234  -19.2088   11.6594 C   0  0  0  0  0  0  0  0  0  0  0  0
  -11.8549  -18.6234   11.8820 C   0  0  0  0  0  0  0  0  0  0  0  0
  -11.5963  -17.6012   12.4986 O   0  0  0  0  0  0  0  0  0  0  0  0
  -10.9364  -19.5044   11.3668 N   0  0  0  0  0  0  0  0  0  0  0  0
  -11.5514  -20.6466   10.8121 O   0  0  0  0  0  0  0  0  0  0  0  0
  -12.9157  -20.2571   10.5984 C   0  0  0  0  0  0  0  0  0  0  0  0
  1  2  1  0
  2  3  1  0
  3  4  2  0
  3  5  1  0
  5  6  1  0
  6  7  1  0
  6 11  1  0
  7  8  2  0
  7  9  1  0
  9 10  1  0
 10 11  1  0
M  END
>  <Gold.Gold.Protein.RotatedWaterAtoms>  (471) 


>  <Gold.Id.Protein>  (471) 


>  <Gold.PLP.Chemscore.CHOScore>  (471) 
0.0000

>  <Gold.PLP.Chemscore.Hbond>  (471) 
5.0281

>  <Gold.PLP.Chemscore.Internal.Correction>  (471) 
0.0325

>  <Gold.PLP.Chemscore.Metal>  (471) 
0.0000

>  <Gold.PLP.Fitness>  (471) 
35.8104

>  <Gold.PLP.PLP>  (471) 
-20.8136

>  <Gold.PLP.ligand.clash>  (471) 
0.0000

>  <Gold.PLP.ligand.torsion>  (471) 
0.0600

>  <Gold.PLP.part.buried>  (471) 
-4.2907

>  <Gold.PLP.part.hbond>  (471) 
-6.0000

>  <Gold.PLP.part.metal>  (471) 
0.0000

>  <Gold.PLP.part.nonpolar>  (471) 
-10.6878

>  <Gold.PLP.part.repulsive>  (471) 
0.1886

>  <Gold.Protein.RotatedAtoms>  (471) 


>  <Gold.Protein.RotatedTorsions>  (471) 


>  <Gold.Protein.RotatedWaterAtoms>  (471) 


>  <Gold.Version>  (471) 
5.3.0

>  <PLP.Chemscore.CHOScore>  (471) 


>  <PLP.Chemscore.Hbond>  (471) 


>  <PLP.Chemscore.Internal.Correction>  (471) 


>  <PLP.Chemscore.Metal>  (471) 


>  <PLP.Fitness>  (471) 


>  <PLP.PLP>  (471) 


>  <PLP.ligand.clash>  (471) 


>  <PLP.ligand.torsion>  (471) 


>  <PLP.part.buried>  (471) 


>  <PLP.part.hbond>  (471) 


>  <PLP.part.metal>  (471) 


>  <PLP.part.nonpolar>  (471) 


>  <PLP.part.repulsive>  (471) 


>  <Version>  (471) 


$$$$
471|Compound_259|Compounds_3D_F|sdf|66|dock6|1
     RDKit          3D

 11 11  0  0  0  0  0  0  0  0999 V2000
  -10.1336  -15.4956    8.7247 N   0  0  0  0  0  0  0  0  0  0  0  0
   -8.8053  -15.9647    9.1587 C   0  0  0  0  0  0  0  0  0  0  0  0
   -8.5736  -15.6304   10.6310 C   0  0  0  0  0  0  0  0  0  0  0  0
   -9.3505  -15.9681   11.5186 O   0  0  0  0  0  0  0  0  0  0  0  0
   -7.3956  -14.9571   10.8579 N   0  0  0  0  0  0  0  0  0  0  0  0
   -6.9463  -14.5785   12.1837 C   0  0  0  0  0  0  0  0  0  0  0  0
   -5.5093  -14.9851   12.3695 C   0  0  0  0  0  0  0  0  0  0  0  0
   -5.0899  -16.1254   12.4952 O   0  0  0  0  0  0  0  0  0  0  0  0
   -4.7388  -13.8541   12.2571 N   0  0  0  0  0  0  0  0  0  0  0  0
   -5.5183  -12.7051   12.0069 O   0  0  0  0  0  0  0  0  0  0  0  0
   -6.8474  -13.0745   12.4014 C   0  0  0  0  0  0  0  0  0  0  0  0
  1  2  1  0
  2  3  1  0
  3  4  2  0
  3  5  1  0
  5  6  1  0
  6  7  1  0
  6 11  1  0
  7  8  2  0
  7  9  1  0
  9 10  1  0
 10 11  1  0
M  END
>  <Gold.Gold.Protein.RotatedWaterAtoms>  (472) 


>  <Gold.Id.Protein>  (472) 


>  <Gold.PLP.Chemscore.CHOScore>  (472) 
0.0000

>  <Gold.PLP.Chemscore.Hbond>  (472) 
3.4233

>  <Gold.PLP.Chemscore.Internal.Correction>  (472) 
0.0325

>  <Gold.PLP.Chemscore.Metal>  (472) 
0.0000

>  <Gold.PLP.Fitness>  (472) 
34.5387

>  <Gold.PLP.PLP>  (472) 
-24.4551

>  <Gold.PLP.ligand.clash>  (472) 
0.0000

>  <Gold.PLP.ligand.torsion>  (472) 
0.1093

>  <Gold.PLP.part.buried>  (472) 
-5.9753

>  <Gold.PLP.part.hbond>  (472) 
-5.6094

>  <Gold.PLP.part.metal>  (472) 
0.0000

>  <Gold.PLP.part.nonpolar>  (472) 
-13.9973

>  <Gold.PLP.part.repulsive>  (472) 
0.7107

>  <Gold.Protein.RotatedAtoms>  (472) 


>  <Gold.Protein.RotatedTorsions>  (472) 


>  <Gold.Protein.RotatedWaterAtoms>  (472) 


>  <Gold.Version>  (472) 
5.3.0

>  <PLP.Chemscore.CHOScore>  (472) 


>  <PLP.Chemscore.Hbond>  (472) 


>  <PLP.Chemscore.Internal.Correction>  (472) 


>  <PLP.Chemscore.Metal>  (472) 


>  <PLP.Fitness>  (472) 


>  <PLP.PLP>  (472) 


>  <PLP.ligand.clash>  (472) 


>  <PLP.ligand.torsion>  (472) 


>  <PLP.part.buried>  (472) 


>  <PLP.part.hbond>  (472) 


>  <PLP.part.metal>  (472) 


>  <PLP.part.nonpolar>  (472) 


>  <PLP.part.repulsive>  (472) 


>  <Version>  (472) 


$$$$
472|Compound_259|Compounds_3D_F|sdf|66|dock7|1
     RDKit          3D

 11 11  0  0  0  0  0  0  0  0999 V2000
   -4.4601  -12.2490   13.4028 N   0  0  0  0  0  0  0  0  0  0  0  0
   -5.5621  -12.0169   12.4517 C   0  0  0  0  0  0  0  0  0  0  0  0
   -6.2987  -13.3219   12.1562 C   0  0  0  0  0  0  0  0  0  0  0  0
   -7.4686  -13.5107   12.4748 O   0  0  0  0  0  0  0  0  0  0  0  0
   -5.5350  -14.2345   11.4661 N   0  0  0  0  0  0  0  0  0  0  0  0
   -6.0422  -15.5235   11.0370 C   0  0  0  0  0  0  0  0  0  0  0  0
   -5.6646  -15.7665    9.6006 C   0  0  0  0  0  0  0  0  0  0  0  0
   -6.1295  -15.1991    8.6239 O   0  0  0  0  0  0  0  0  0  0  0  0
   -4.6210  -16.6587    9.5896 N   0  0  0  0  0  0  0  0  0  0  0  0
   -4.2442  -17.0489   10.8921 O   0  0  0  0  0  0  0  0  0  0  0  0
   -5.3718  -16.7123   11.7129 C   0  0  0  0  0  0  0  0  0  0  0  0
  1  2  1  0
  2  3  1  0
  3  4  2  0
  3  5  1  0
  5  6  1  0
  6  7  1  0
  6 11  1  0
  7  8  2  0
  7  9  1  0
  9 10  1  0
 10 11  1  0
M  END
>  <Gold.Gold.Protein.RotatedWaterAtoms>  (473) 


>  <Gold.Id.Protein>  (473) 


>  <Gold.PLP.Chemscore.CHOScore>  (473) 
0.0000

>  <Gold.PLP.Chemscore.Hbond>  (473) 
3.6779

>  <Gold.PLP.Chemscore.Internal.Correction>  (473) 
0.0325

>  <Gold.PLP.Chemscore.Metal>  (473) 
0.0000

>  <Gold.PLP.Fitness>  (473) 
34.9559

>  <Gold.PLP.PLP>  (473) 
-24.1465

>  <Gold.PLP.ligand.clash>  (473) 
0.0000

>  <Gold.PLP.ligand.torsion>  (473) 
0.1284

>  <Gold.PLP.part.buried>  (473) 
-4.8095

>  <Gold.PLP.part.hbond>  (473) 
-5.9944

>  <Gold.PLP.part.metal>  (473) 
0.0000

>  <Gold.PLP.part.nonpolar>  (473) 
-14.2139

>  <Gold.PLP.part.repulsive>  (473) 
0.5607

>  <Gold.Protein.RotatedAtoms>  (473) 


>  <Gold.Protein.RotatedTorsions>  (473) 


>  <Gold.Protein.RotatedWaterAtoms>  (473) 


>  <Gold.Version>  (473) 
5.3.0

>  <PLP.Chemscore.CHOScore>  (473) 


>  <PLP.Chemscore.Hbond>  (473) 


>  <PLP.Chemscore.Internal.Correction>  (473) 


>  <PLP.Chemscore.Metal>  (473) 


>  <PLP.Fitness>  (473) 


>  <PLP.PLP>  (473) 


>  <PLP.ligand.clash>  (473) 


>  <PLP.ligand.torsion>  (473) 


>  <PLP.part.buried>  (473) 


>  <PLP.part.hbond>  (473) 


>  <PLP.part.metal>  (473) 


>  <PLP.part.nonpolar>  (473) 


>  <PLP.part.repulsive>  (473) 


>  <Version>  (473) 


$$$$
473|Compound_259|Compounds_3D_F|sdf|66|dock8|1
     RDKit          3D

 11 11  0  0  0  0  0  0  0  0999 V2000
   -4.4511  -12.1989   13.3909 N   0  0  0  0  0  0  0  0  0  0  0  0
   -5.6220  -12.2996   12.5011 C   0  0  0  0  0  0  0  0  0  0  0  0
   -5.9943  -13.7627   12.2688 C   0  0  0  0  0  0  0  0  0  0  0  0
   -7.1420  -14.1260   12.0315 O   0  0  0  0  0  0  0  0  0  0  0  0
   -4.9137  -14.6130   12.3104 N   0  0  0  0  0  0  0  0  0  0  0  0
   -5.0226  -16.0391   12.0712 C   0  0  0  0  0  0  0  0  0  0  0  0
   -5.3381  -16.2892   10.6211 C   0  0  0  0  0  0  0  0  0  0  0  0
   -6.3993  -16.0605   10.0611 O   0  0  0  0  0  0  0  0  0  0  0  0
   -4.1836  -16.7136   10.0110 N   0  0  0  0  0  0  0  0  0  0  0  0
   -3.0999  -16.7744   10.9124 O   0  0  0  0  0  0  0  0  0  0  0  0
   -3.7085  -16.7958   12.2115 C   0  0  0  0  0  0  0  0  0  0  0  0
  1  2  1  0
  2  3  1  0
  3  4  2  0
  3  5  1  0
  5  6  1  0
  6  7  1  0
  6 11  1  0
  7  8  2  0
  7  9  1  0
  9 10  1  0
 10 11  1  0
M  END
>  <Gold.Gold.Protein.RotatedWaterAtoms>  (474) 


>  <Gold.Id.Protein>  (474) 


>  <Gold.PLP.Chemscore.CHOScore>  (474) 
0.0000

>  <Gold.PLP.Chemscore.Hbond>  (474) 
3.0000

>  <Gold.PLP.Chemscore.Internal.Correction>  (474) 
0.0325

>  <Gold.PLP.Chemscore.Metal>  (474) 
0.0000

>  <Gold.PLP.Fitness>  (474) 
35.7952

>  <Gold.PLP.PLP>  (474) 
-27.6013

>  <Gold.PLP.ligand.clash>  (474) 
0.0000

>  <Gold.PLP.ligand.torsion>  (474) 
0.4193

>  <Gold.PLP.part.buried>  (474) 
-6.8683

>  <Gold.PLP.part.hbond>  (474) 
-6.5359

>  <Gold.PLP.part.metal>  (474) 
0.0000

>  <Gold.PLP.part.nonpolar>  (474) 
-15.7298

>  <Gold.PLP.part.repulsive>  (474) 
1.3324

>  <Gold.Protein.RotatedAtoms>  (474) 


>  <Gold.Protein.RotatedTorsions>  (474) 


>  <Gold.Protein.RotatedWaterAtoms>  (474) 


>  <Gold.Version>  (474) 
5.3.0

>  <PLP.Chemscore.CHOScore>  (474) 


>  <PLP.Chemscore.Hbond>  (474) 


>  <PLP.Chemscore.Internal.Correction>  (474) 


>  <PLP.Chemscore.Metal>  (474) 


>  <PLP.Fitness>  (474) 


>  <PLP.PLP>  (474) 


>  <PLP.ligand.clash>  (474) 


>  <PLP.ligand.torsion>  (474) 


>  <PLP.part.buried>  (474) 


>  <PLP.part.hbond>  (474) 


>  <PLP.part.metal>  (474) 


>  <PLP.part.nonpolar>  (474) 


>  <PLP.part.repulsive>  (474) 


>  <Version>  (474) 


$$$$
474|Compound_259|Compounds_3D_F|sdf|66|dock9|1
     RDKit          3D

 11 11  0  0  0  0  0  0  0  0999 V2000
  -14.9266  -21.8130   14.4689 N   0  0  0  0  0  0  0  0  0  0  0  0
  -13.6291  -21.1918   14.7903 C   0  0  0  0  0  0  0  0  0  0  0  0
  -13.0049  -20.5768   13.5393 C   0  0  0  0  0  0  0  0  0  0  0  0
  -11.9197  -20.9363   13.0935 O   0  0  0  0  0  0  0  0  0  0  0  0
  -13.7977  -19.6201   12.9488 N   0  0  0  0  0  0  0  0  0  0  0  0
  -13.4289  -18.9359   11.7246 C   0  0  0  0  0  0  0  0  0  0  0  0
  -11.9918  -18.4956   11.8007 C   0  0  0  0  0  0  0  0  0  0  0  0
  -11.5455  -17.5985   12.4991 O   0  0  0  0  0  0  0  0  0  0  0  0
  -11.2508  -19.3582   11.0311 N   0  0  0  0  0  0  0  0  0  0  0  0
  -12.0505  -20.3558   10.4344 O   0  0  0  0  0  0  0  0  0  0  0  0
  -13.3865  -19.8363   10.4971 C   0  0  0  0  0  0  0  0  0  0  0  0
  1  2  1  0
  2  3  1  0
  3  4  2  0
  3  5  1  0
  5  6  1  0
  6  7  1  0
  6 11  1  0
  7  8  2  0
  7  9  1  0
  9 10  1  0
 10 11  1  0
M  END
>  <Gold.Gold.Protein.RotatedWaterAtoms>  (475) 


>  <Gold.Id.Protein>  (475) 


>  <Gold.PLP.Chemscore.CHOScore>  (475) 
0.0000

>  <Gold.PLP.Chemscore.Hbond>  (475) 
5.0499

>  <Gold.PLP.Chemscore.Internal.Correction>  (475) 
0.0325

>  <Gold.PLP.Chemscore.Metal>  (475) 
0.0000

>  <Gold.PLP.Fitness>  (475) 
36.6888

>  <Gold.PLP.PLP>  (475) 
-21.7251

>  <Gold.PLP.ligand.clash>  (475) 
0.0000

>  <Gold.PLP.ligand.torsion>  (475) 
0.1093

>  <Gold.PLP.part.buried>  (475) 
-4.9665

>  <Gold.PLP.part.hbond>  (475) 
-5.9759

>  <Gold.PLP.part.metal>  (475) 
0.0000

>  <Gold.PLP.part.nonpolar>  (475) 
-11.8854

>  <Gold.PLP.part.repulsive>  (475) 
0.1877

>  <Gold.Protein.RotatedAtoms>  (475) 


>  <Gold.Protein.RotatedTorsions>  (475) 


>  <Gold.Protein.RotatedWaterAtoms>  (475) 


>  <Gold.Version>  (475) 
5.3.0

>  <PLP.Chemscore.CHOScore>  (475) 


>  <PLP.Chemscore.Hbond>  (475) 


>  <PLP.Chemscore.Internal.Correction>  (475) 


>  <PLP.Chemscore.Metal>  (475) 


>  <PLP.Fitness>  (475) 


>  <PLP.PLP>  (475) 


>  <PLP.ligand.clash>  (475) 


>  <PLP.ligand.torsion>  (475) 


>  <PLP.part.buried>  (475) 


>  <PLP.part.hbond>  (475) 


>  <PLP.part.metal>  (475) 


>  <PLP.part.nonpolar>  (475) 


>  <PLP.part.repulsive>  (475) 


>  <Version>  (475) 


$$$$
475|Compound_261|Compounds_3D_F|sdf|67|dock1|1
     RDKit          3D

 11 10  0  0  0  0  0  0  0  0999 V2000
   -5.5453  -14.9382    9.1180 O   0  0  0  0  0  0  0  0  0  0  0  0
   -6.5524  -15.4013   10.2818 P   0  0  0  0  0  0  0  0  0  0  0  0
   -7.8531  -15.9491    9.7910 O   0  0  0  0  0  0  0  0  0  0  0  0
   -5.6452  -16.4434   11.0963 O   0  0  0  0  0  0  0  0  0  0  0  0
   -6.6922  -13.9375   11.3046 C   0  0  0  0  0  0  0  0  0  0  0  0
   -8.1307  -13.5641   11.6327 C   0  0  0  0  0  0  0  0  0  0  0  0
   -8.3737  -12.1358   11.5911 N   0  0  0  0  0  0  0  0  0  0  0  0
   -7.4882  -11.1850   12.0413 C   0  0  0  0  0  0  0  0  0  0  0  0
   -6.3686  -11.4616   12.4729 O   0  0  0  0  0  0  0  0  0  0  0  0
   -7.9926   -9.7508   11.8881 C   0  0  0  0  0  0  0  0  0  0  0  0
   -8.4881   -9.5189   10.5200 N   0  0  0  0  0  0  0  0  0  0  0  0
  1  2  1  0
  2  3  2  0
  2  4  1  0
  2  5  1  0
  5  6  1  0
  6  7  1  0
  7  8  1  0
  8  9  2  0
  8 10  1  0
 10 11  1  0
M  END
>  <Gold.Gold.Protein.RotatedWaterAtoms>  (476) 


>  <Gold.Id.Protein>  (476) 


>  <Gold.PLP.Chemscore.CHOScore>  (476) 
0.0000

>  <Gold.PLP.Chemscore.Hbond>  (476) 
3.3918

>  <Gold.PLP.Chemscore.Internal.Correction>  (476) 
0.1165

>  <Gold.PLP.Chemscore.Metal>  (476) 
0.0000

>  <Gold.PLP.Fitness>  (476) 
38.0013

>  <Gold.PLP.PLP>  (476) 
-28.8769

>  <Gold.PLP.ligand.clash>  (476) 
0.0000

>  <Gold.PLP.ligand.torsion>  (476) 
0.5837

>  <Gold.PLP.part.buried>  (476) 
-7.0668

>  <Gold.PLP.part.hbond>  (476) 
-3.5724

>  <Gold.PLP.part.metal>  (476) 
0.0000

>  <Gold.PLP.part.nonpolar>  (476) 
-18.6619

>  <Gold.PLP.part.repulsive>  (476) 
0.5045

>  <Gold.Protein.RotatedAtoms>  (476) 


>  <Gold.Protein.RotatedTorsions>  (476) 


>  <Gold.Protein.RotatedWaterAtoms>  (476) 


>  <Gold.Version>  (476) 
5.3.0

>  <PLP.Chemscore.CHOScore>  (476) 


>  <PLP.Chemscore.Hbond>  (476) 


>  <PLP.Chemscore.Internal.Correction>  (476) 


>  <PLP.Chemscore.Metal>  (476) 


>  <PLP.Fitness>  (476) 


>  <PLP.PLP>  (476) 


>  <PLP.ligand.clash>  (476) 


>  <PLP.ligand.torsion>  (476) 


>  <PLP.part.buried>  (476) 


>  <PLP.part.hbond>  (476) 


>  <PLP.part.metal>  (476) 


>  <PLP.part.nonpolar>  (476) 


>  <PLP.part.repulsive>  (476) 


>  <Version>  (476) 


$$$$
476|Compound_261|Compounds_3D_F|sdf|67|dock2|1
     RDKit          3D

 11 10  0  0  0  0  0  0  0  0999 V2000
  -10.7951  -17.0784   12.4252 O   0  0  0  0  0  0  0  0  0  0  0  0
   -9.8814  -17.8075   11.3221 P   0  0  0  0  0  0  0  0  0  0  0  0
   -9.6482  -19.2613   11.5766 O   0  0  0  0  0  0  0  0  0  0  0  0
  -10.6826  -17.4784    9.9722 O   0  0  0  0  0  0  0  0  0  0  0  0
   -8.3988  -16.8028   11.2939 C   0  0  0  0  0  0  0  0  0  0  0  0
   -8.4864  -15.5706   12.1830 C   0  0  0  0  0  0  0  0  0  0  0  0
   -7.2775  -14.7710   12.1715 N   0  0  0  0  0  0  0  0  0  0  0  0
   -7.2571  -13.3961   12.1674 C   0  0  0  0  0  0  0  0  0  0  0  0
   -8.2772  -12.7096   12.2330 O   0  0  0  0  0  0  0  0  0  0  0  0
   -5.8501  -12.8003   12.1482 C   0  0  0  0  0  0  0  0  0  0  0  0
   -5.0133  -13.4134   13.1946 N   0  0  0  0  0  0  0  0  0  0  0  0
  1  2  1  0
  2  3  2  0
  2  4  1  0
  2  5  1  0
  5  6  1  0
  6  7  1  0
  7  8  1  0
  8  9  2  0
  8 10  1  0
 10 11  1  0
M  END
>  <Gold.Gold.Protein.RotatedWaterAtoms>  (477) 


>  <Gold.Id.Protein>  (477) 


>  <Gold.PLP.Chemscore.CHOScore>  (477) 
0.0000

>  <Gold.PLP.Chemscore.Hbond>  (477) 
4.9673

>  <Gold.PLP.Chemscore.Internal.Correction>  (477) 
0.1147

>  <Gold.PLP.Chemscore.Metal>  (477) 
0.0000

>  <Gold.PLP.Fitness>  (477) 
37.4120

>  <Gold.PLP.PLP>  (477) 
-23.1708

>  <Gold.PLP.ligand.clash>  (477) 
0.0000

>  <Gold.PLP.ligand.torsion>  (477) 
0.3876

>  <Gold.PLP.part.buried>  (477) 
-6.3715

>  <Gold.PLP.part.hbond>  (477) 
-4.9609

>  <Gold.PLP.part.metal>  (477) 
0.0000

>  <Gold.PLP.part.nonpolar>  (477) 
-14.3078

>  <Gold.PLP.part.repulsive>  (477) 
0.2086

>  <Gold.Protein.RotatedAtoms>  (477) 


>  <Gold.Protein.RotatedTorsions>  (477) 


>  <Gold.Protein.RotatedWaterAtoms>  (477) 


>  <Gold.Version>  (477) 
5.3.0

>  <PLP.Chemscore.CHOScore>  (477) 


>  <PLP.Chemscore.Hbond>  (477) 


>  <PLP.Chemscore.Internal.Correction>  (477) 


>  <PLP.Chemscore.Metal>  (477) 


>  <PLP.Fitness>  (477) 


>  <PLP.PLP>  (477) 


>  <PLP.ligand.clash>  (477) 


>  <PLP.ligand.torsion>  (477) 


>  <PLP.part.buried>  (477) 


>  <PLP.part.hbond>  (477) 


>  <PLP.part.metal>  (477) 


>  <PLP.part.nonpolar>  (477) 


>  <PLP.part.repulsive>  (477) 


>  <Version>  (477) 


$$$$
477|Compound_261|Compounds_3D_F|sdf|67|dock3|1
     RDKit          3D

 11 10  0  0  0  0  0  0  0  0999 V2000
   -4.4192  -15.3530   12.1573 O   0  0  0  0  0  0  0  0  0  0  0  0
   -5.7777  -14.5156   11.9663 P   0  0  0  0  0  0  0  0  0  0  0  0
   -5.8481  -13.2606   12.7743 O   0  0  0  0  0  0  0  0  0  0  0  0
   -5.8006  -14.2979   10.3775 O   0  0  0  0  0  0  0  0  0  0  0  0
   -7.0522  -15.7189   12.3355 C   0  0  0  0  0  0  0  0  0  0  0  0
   -8.4133  -15.3536   11.7608 C   0  0  0  0  0  0  0  0  0  0  0  0
   -9.3946  -16.4111   11.9004 N   0  0  0  0  0  0  0  0  0  0  0  0
   -9.1871  -17.7166   11.5215 C   0  0  0  0  0  0  0  0  0  0  0  0
   -8.1133  -18.1238   11.0771 O   0  0  0  0  0  0  0  0  0  0  0  0
  -10.3867  -18.6294   11.7715 C   0  0  0  0  0  0  0  0  0  0  0  0
  -11.5574  -17.8422   12.1967 N   0  0  0  0  0  0  0  0  0  0  0  0
  1  2  1  0
  2  3  2  0
  2  4  1  0
  2  5  1  0
  5  6  1  0
  6  7  1  0
  7  8  1  0
  8  9  2  0
  8 10  1  0
 10 11  1  0
M  END
>  <Gold.Gold.Protein.RotatedWaterAtoms>  (478) 


>  <Gold.Id.Protein>  (478) 


>  <Gold.PLP.Chemscore.CHOScore>  (478) 
0.0000

>  <Gold.PLP.Chemscore.Hbond>  (478) 
4.1430

>  <Gold.PLP.Chemscore.Internal.Correction>  (478) 
0.1115

>  <Gold.PLP.Chemscore.Metal>  (478) 
0.0000

>  <Gold.PLP.Fitness>  (478) 
36.5573

>  <Gold.PLP.PLP>  (478) 
-24.7600

>  <Gold.PLP.ligand.clash>  (478) 
0.0000

>  <Gold.PLP.ligand.torsion>  (478) 
0.3716

>  <Gold.PLP.part.buried>  (478) 
-5.9774

>  <Gold.PLP.part.hbond>  (478) 
-6.9585

>  <Gold.PLP.part.metal>  (478) 
0.0000

>  <Gold.PLP.part.nonpolar>  (478) 
-13.0268

>  <Gold.PLP.part.repulsive>  (478) 
0.3774

>  <Gold.Protein.RotatedAtoms>  (478) 


>  <Gold.Protein.RotatedTorsions>  (478) 


>  <Gold.Protein.RotatedWaterAtoms>  (478) 


>  <Gold.Version>  (478) 
5.3.0

>  <PLP.Chemscore.CHOScore>  (478) 


>  <PLP.Chemscore.Hbond>  (478) 


>  <PLP.Chemscore.Internal.Correction>  (478) 


>  <PLP.Chemscore.Metal>  (478) 


>  <PLP.Fitness>  (478) 


>  <PLP.PLP>  (478) 


>  <PLP.ligand.clash>  (478) 


>  <PLP.ligand.torsion>  (478) 


>  <PLP.part.buried>  (478) 


>  <PLP.part.hbond>  (478) 


>  <PLP.part.metal>  (478) 


>  <PLP.part.nonpolar>  (478) 


>  <PLP.part.repulsive>  (478) 


>  <Version>  (478) 


$$$$
478|Compound_261|Compounds_3D_F|sdf|67|dock4|1
     RDKit          3D

 11 10  0  0  0  0  0  0  0  0999 V2000
  -11.0064  -17.2904   12.2898 O   0  0  0  0  0  0  0  0  0  0  0  0
  -10.0081  -18.0232   11.2653 P   0  0  0  0  0  0  0  0  0  0  0  0
   -9.9949  -19.5133   11.3752 O   0  0  0  0  0  0  0  0  0  0  0  0
  -10.5199  -17.4547    9.8555 O   0  0  0  0  0  0  0  0  0  0  0  0
   -8.4352  -17.2320   11.5945 C   0  0  0  0  0  0  0  0  0  0  0  0
   -8.4143  -15.7539   11.2321 C   0  0  0  0  0  0  0  0  0  0  0  0
   -7.1794  -15.0922   11.6037 N   0  0  0  0  0  0  0  0  0  0  0  0
   -7.1114  -13.8555   12.2009 C   0  0  0  0  0  0  0  0  0  0  0  0
   -8.1092  -13.2145   12.5321 O   0  0  0  0  0  0  0  0  0  0  0  0
   -5.6854  -13.3839   12.4818 C   0  0  0  0  0  0  0  0  0  0  0  0
   -4.7071  -14.3719   11.9943 N   0  0  0  0  0  0  0  0  0  0  0  0
  1  2  1  0
  2  3  2  0
  2  4  1  0
  2  5  1  0
  5  6  1  0
  6  7  1  0
  7  8  1  0
  8  9  2  0
  8 10  1  0
 10 11  1  0
M  END
>  <Gold.Gold.Protein.RotatedWaterAtoms>  (479) 


>  <Gold.Id.Protein>  (479) 


>  <Gold.PLP.Chemscore.CHOScore>  (479) 
0.0000

>  <Gold.PLP.Chemscore.Hbond>  (479) 
4.0000

>  <Gold.PLP.Chemscore.Internal.Correction>  (479) 
0.1070

>  <Gold.PLP.Chemscore.Metal>  (479) 
0.0000

>  <Gold.PLP.Fitness>  (479) 
37.2676

>  <Gold.PLP.PLP>  (479) 
-25.7781

>  <Gold.PLP.ligand.clash>  (479) 
0.0000

>  <Gold.PLP.ligand.torsion>  (479) 
0.3087

>  <Gold.PLP.part.buried>  (479) 
-6.6882

>  <Gold.PLP.part.hbond>  (479) 
-5.0000

>  <Gold.PLP.part.metal>  (479) 
0.0000

>  <Gold.PLP.part.nonpolar>  (479) 
-14.4968

>  <Gold.PLP.part.repulsive>  (479) 
0.1769

>  <Gold.Protein.RotatedAtoms>  (479) 


>  <Gold.Protein.RotatedTorsions>  (479) 


>  <Gold.Protein.RotatedWaterAtoms>  (479) 


>  <Gold.Version>  (479) 
5.3.0

>  <PLP.Chemscore.CHOScore>  (479) 


>  <PLP.Chemscore.Hbond>  (479) 


>  <PLP.Chemscore.Internal.Correction>  (479) 


>  <PLP.Chemscore.Metal>  (479) 


>  <PLP.Fitness>  (479) 


>  <PLP.PLP>  (479) 


>  <PLP.ligand.clash>  (479) 


>  <PLP.ligand.torsion>  (479) 


>  <PLP.part.buried>  (479) 


>  <PLP.part.hbond>  (479) 


>  <PLP.part.metal>  (479) 


>  <PLP.part.nonpolar>  (479) 


>  <PLP.part.repulsive>  (479) 


>  <Version>  (479) 


$$$$
479|Compound_261|Compounds_3D_F|sdf|67|dock5|1
     RDKit          3D

 11 10  0  0  0  0  0  0  0  0999 V2000
  -11.0367  -20.0760   11.3980 O   0  0  0  0  0  0  0  0  0  0  0  0
  -12.1948  -18.9795   11.5973 P   0  0  0  0  0  0  0  0  0  0  0  0
  -13.3379  -19.4357   12.4444 O   0  0  0  0  0  0  0  0  0  0  0  0
  -11.3663  -17.7412   12.1913 O   0  0  0  0  0  0  0  0  0  0  0  0
  -12.6334  -18.5415    9.9168 C   0  0  0  0  0  0  0  0  0  0  0  0
  -14.1054  -18.7620    9.5990 C   0  0  0  0  0  0  0  0  0  0  0  0
  -14.3281  -19.8094    8.6223 N   0  0  0  0  0  0  0  0  0  0  0  0
  -14.1615  -21.1512    8.8724 C   0  0  0  0  0  0  0  0  0  0  0  0
  -13.8603  -21.5949    9.9809 O   0  0  0  0  0  0  0  0  0  0  0  0
  -14.4561  -22.0443    7.6681 C   0  0  0  0  0  0  0  0  0  0  0  0
  -15.8040  -21.7724    7.1385 N   0  0  0  0  0  0  0  0  0  0  0  0
  1  2  1  0
  2  3  2  0
  2  4  1  0
  2  5  1  0
  5  6  1  0
  6  7  1  0
  7  8  1  0
  8  9  2  0
  8 10  1  0
 10 11  1  0
M  END
>  <Gold.Gold.Protein.RotatedWaterAtoms>  (480) 


>  <Gold.Id.Protein>  (480) 


>  <Gold.PLP.Chemscore.CHOScore>  (480) 
0.0000

>  <Gold.PLP.Chemscore.Hbond>  (480) 
4.6080

>  <Gold.PLP.Chemscore.Internal.Correction>  (480) 
0.1053

>  <Gold.PLP.Chemscore.Metal>  (480) 
0.0000

>  <Gold.PLP.Fitness>  (480) 
36.7338

>  <Gold.PLP.PLP>  (480) 
-23.8154

>  <Gold.PLP.ligand.clash>  (480) 
0.0000

>  <Gold.PLP.ligand.torsion>  (480) 
0.5055

>  <Gold.PLP.part.buried>  (480) 
-3.3519

>  <Gold.PLP.part.hbond>  (480) 
-5.9762

>  <Gold.PLP.part.metal>  (480) 
0.0000

>  <Gold.PLP.part.nonpolar>  (480) 
-15.5225

>  <Gold.PLP.part.repulsive>  (480) 
0.4957

>  <Gold.Protein.RotatedAtoms>  (480) 


>  <Gold.Protein.RotatedTorsions>  (480) 


>  <Gold.Protein.RotatedWaterAtoms>  (480) 


>  <Gold.Version>  (480) 
5.3.0

>  <PLP.Chemscore.CHOScore>  (480) 


>  <PLP.Chemscore.Hbond>  (480) 


>  <PLP.Chemscore.Internal.Correction>  (480) 


>  <PLP.Chemscore.Metal>  (480) 


>  <PLP.Fitness>  (480) 


>  <PLP.PLP>  (480) 


>  <PLP.ligand.clash>  (480) 


>  <PLP.ligand.torsion>  (480) 


>  <PLP.part.buried>  (480) 


>  <PLP.part.hbond>  (480) 


>  <PLP.part.metal>  (480) 


>  <PLP.part.nonpolar>  (480) 


>  <PLP.part.repulsive>  (480) 


>  <Version>  (480) 


$$$$
480|Compound_261|Compounds_3D_F|sdf|67|dock6|1
     RDKit          3D

 11 10  0  0  0  0  0  0  0  0999 V2000
   -5.7974  -15.1982    8.4375 O   0  0  0  0  0  0  0  0  0  0  0  0
   -5.4831  -16.5271    9.2852 P   0  0  0  0  0  0  0  0  0  0  0  0
   -6.0030  -17.7872    8.6732 O   0  0  0  0  0  0  0  0  0  0  0  0
   -3.8868  -16.4514    9.4218 O   0  0  0  0  0  0  0  0  0  0  0  0
   -6.1528  -16.1456   10.9021 C   0  0  0  0  0  0  0  0  0  0  0  0
   -5.0859  -15.8143   11.9357 C   0  0  0  0  0  0  0  0  0  0  0  0
   -4.9188  -14.3902   12.1477 N   0  0  0  0  0  0  0  0  0  0  0  0
   -5.9573  -13.5010   12.2950 C   0  0  0  0  0  0  0  0  0  0  0  0
   -7.1388  -13.8470   12.3191 O   0  0  0  0  0  0  0  0  0  0  0  0
   -5.5068  -12.0553   12.4996 C   0  0  0  0  0  0  0  0  0  0  0  0
   -4.3409  -11.9979   13.3987 N   0  0  0  0  0  0  0  0  0  0  0  0
  1  2  1  0
  2  3  2  0
  2  4  1  0
  2  5  1  0
  5  6  1  0
  6  7  1  0
  7  8  1  0
  8  9  2  0
  8 10  1  0
 10 11  1  0
M  END
>  <Gold.Gold.Protein.RotatedWaterAtoms>  (481) 


>  <Gold.Id.Protein>  (481) 


>  <Gold.PLP.Chemscore.CHOScore>  (481) 
0.0000

>  <Gold.PLP.Chemscore.Hbond>  (481) 
5.0000

>  <Gold.PLP.Chemscore.Internal.Correction>  (481) 
0.1028

>  <Gold.PLP.Chemscore.Metal>  (481) 
0.0000

>  <Gold.PLP.Fitness>  (481) 
39.7685

>  <Gold.PLP.PLP>  (481) 
-26.1923

>  <Gold.PLP.ligand.clash>  (481) 
0.0000

>  <Gold.PLP.ligand.torsion>  (481) 
0.7633

>  <Gold.PLP.part.buried>  (481) 
-5.7249

>  <Gold.PLP.part.hbond>  (481) 
-6.8750

>  <Gold.PLP.part.metal>  (481) 
0.0000

>  <Gold.PLP.part.nonpolar>  (481) 
-13.5152

>  <Gold.PLP.part.repulsive>  (481) 
0.2424

>  <Gold.Protein.RotatedAtoms>  (481) 


>  <Gold.Protein.RotatedTorsions>  (481) 


>  <Gold.Protein.RotatedWaterAtoms>  (481) 


>  <Gold.Version>  (481) 
5.3.0

>  <PLP.Chemscore.CHOScore>  (481) 


>  <PLP.Chemscore.Hbond>  (481) 


>  <PLP.Chemscore.Internal.Correction>  (481) 


>  <PLP.Chemscore.Metal>  (481) 


>  <PLP.Fitness>  (481) 


>  <PLP.PLP>  (481) 


>  <PLP.ligand.clash>  (481) 


>  <PLP.ligand.torsion>  (481) 


>  <PLP.part.buried>  (481) 


>  <PLP.part.hbond>  (481) 


>  <PLP.part.metal>  (481) 


>  <PLP.part.nonpolar>  (481) 


>  <PLP.part.repulsive>  (481) 


>  <Version>  (481) 


$$$$
481|Compound_261|Compounds_3D_F|sdf|67|dock7|1
     RDKit          3D

 11 10  0  0  0  0  0  0  0  0999 V2000
   -4.5196  -16.4029    9.4563 O   0  0  0  0  0  0  0  0  0  0  0  0
   -3.4615  -17.3426   10.2182 P   0  0  0  0  0  0  0  0  0  0  0  0
   -3.6131  -18.8013    9.9323 O   0  0  0  0  0  0  0  0  0  0  0  0
   -2.0673  -16.7038    9.7483 O   0  0  0  0  0  0  0  0  0  0  0  0
   -3.6780  -16.8878   11.9372 C   0  0  0  0  0  0  0  0  0  0  0  0
   -4.9938  -16.1741   12.2127 C   0  0  0  0  0  0  0  0  0  0  0  0
   -4.8590  -14.7323   12.2762 N   0  0  0  0  0  0  0  0  0  0  0  0
   -5.9170  -13.8570   12.3480 C   0  0  0  0  0  0  0  0  0  0  0  0
   -7.0893  -14.2259   12.4250 O   0  0  0  0  0  0  0  0  0  0  0  0
   -5.4996  -12.3879   12.3978 C   0  0  0  0  0  0  0  0  0  0  0  0
   -4.4415  -12.1834   13.4027 N   0  0  0  0  0  0  0  0  0  0  0  0
  1  2  1  0
  2  3  2  0
  2  4  1  0
  2  5  1  0
  5  6  1  0
  6  7  1  0
  7  8  1  0
  8  9  2  0
  8 10  1  0
 10 11  1  0
M  END
>  <Gold.Gold.Protein.RotatedWaterAtoms>  (482) 


>  <Gold.Id.Protein>  (482) 


>  <Gold.PLP.Chemscore.CHOScore>  (482) 
0.0000

>  <Gold.PLP.Chemscore.Hbond>  (482) 
4.9513

>  <Gold.PLP.Chemscore.Internal.Correction>  (482) 
0.1028

>  <Gold.PLP.Chemscore.Metal>  (482) 
0.0000

>  <Gold.PLP.Fitness>  (482) 
43.6967

>  <Gold.PLP.PLP>  (482) 
-29.9807

>  <Gold.PLP.ligand.clash>  (482) 
0.0000

>  <Gold.PLP.ligand.torsion>  (482) 
0.6203

>  <Gold.PLP.part.buried>  (482) 
-6.7936

>  <Gold.PLP.part.hbond>  (482) 
-7.6253

>  <Gold.PLP.part.metal>  (482) 
0.0000

>  <Gold.PLP.part.nonpolar>  (482) 
-16.4218

>  <Gold.PLP.part.repulsive>  (482) 
0.2233

>  <Gold.Protein.RotatedAtoms>  (482) 


>  <Gold.Protein.RotatedTorsions>  (482) 


>  <Gold.Protein.RotatedWaterAtoms>  (482) 


>  <Gold.Version>  (482) 
5.3.0

>  <PLP.Chemscore.CHOScore>  (482) 


>  <PLP.Chemscore.Hbond>  (482) 


>  <PLP.Chemscore.Internal.Correction>  (482) 


>  <PLP.Chemscore.Metal>  (482) 


>  <PLP.Fitness>  (482) 


>  <PLP.PLP>  (482) 


>  <PLP.ligand.clash>  (482) 


>  <PLP.ligand.torsion>  (482) 


>  <PLP.part.buried>  (482) 


>  <PLP.part.hbond>  (482) 


>  <PLP.part.metal>  (482) 


>  <PLP.part.nonpolar>  (482) 


>  <PLP.part.repulsive>  (482) 


>  <Version>  (482) 


$$$$
482|Compound_261|Compounds_3D_F|sdf|67|dock8|1
     RDKit          3D

 11 10  0  0  0  0  0  0  0  0999 V2000
   -1.9670  -16.7014    9.4986 O   0  0  0  0  0  0  0  0  0  0  0  0
   -3.4158  -17.3606    9.7216 P   0  0  0  0  0  0  0  0  0  0  0  0
   -4.4308  -16.9835    8.6920 O   0  0  0  0  0  0  0  0  0  0  0  0
   -3.0541  -18.9224    9.7727 O   0  0  0  0  0  0  0  0  0  0  0  0
   -3.8290  -16.8769   11.3960 C   0  0  0  0  0  0  0  0  0  0  0  0
   -5.1888  -16.2034   11.5127 C   0  0  0  0  0  0  0  0  0  0  0  0
   -5.1014  -14.7688   11.6999 N   0  0  0  0  0  0  0  0  0  0  0  0
   -6.1340  -13.9814   12.1523 C   0  0  0  0  0  0  0  0  0  0  0  0
   -7.2235  -14.4378   12.4999 O   0  0  0  0  0  0  0  0  0  0  0  0
   -5.7800  -12.4983   12.2534 C   0  0  0  0  0  0  0  0  0  0  0  0
   -4.6136  -12.3025   13.1322 N   0  0  0  0  0  0  0  0  0  0  0  0
  1  2  1  0
  2  3  2  0
  2  4  1  0
  2  5  1  0
  5  6  1  0
  6  7  1  0
  7  8  1  0
  8  9  2  0
  8 10  1  0
 10 11  1  0
M  END
>  <Gold.Gold.Protein.RotatedWaterAtoms>  (483) 


>  <Gold.Id.Protein>  (483) 


>  <Gold.PLP.Chemscore.CHOScore>  (483) 
0.0000

>  <Gold.PLP.Chemscore.Hbond>  (483) 
3.6978

>  <Gold.PLP.Chemscore.Internal.Correction>  (483) 
0.0995

>  <Gold.PLP.Chemscore.Metal>  (483) 
0.0000

>  <Gold.PLP.Fitness>  (483) 
36.4697

>  <Gold.PLP.PLP>  (483) 
-26.2398

>  <Gold.PLP.ligand.clash>  (483) 
0.0000

>  <Gold.PLP.ligand.torsion>  (483) 
0.4815

>  <Gold.PLP.part.buried>  (483) 
-6.0809

>  <Gold.PLP.part.hbond>  (483) 
-6.0000

>  <Gold.PLP.part.metal>  (483) 
0.0000

>  <Gold.PLP.part.nonpolar>  (483) 
-13.7838

>  <Gold.PLP.part.repulsive>  (483) 
0.3215

>  <Gold.Protein.RotatedAtoms>  (483) 


>  <Gold.Protein.RotatedTorsions>  (483) 


>  <Gold.Protein.RotatedWaterAtoms>  (483) 


>  <Gold.Version>  (483) 
5.3.0

>  <PLP.Chemscore.CHOScore>  (483) 


>  <PLP.Chemscore.Hbond>  (483) 


>  <PLP.Chemscore.Internal.Correction>  (483) 


>  <PLP.Chemscore.Metal>  (483) 


>  <PLP.Fitness>  (483) 


>  <PLP.PLP>  (483) 


>  <PLP.ligand.clash>  (483) 


>  <PLP.ligand.torsion>  (483) 


>  <PLP.part.buried>  (483) 


>  <PLP.part.hbond>  (483) 


>  <PLP.part.metal>  (483) 


>  <PLP.part.nonpolar>  (483) 


>  <PLP.part.repulsive>  (483) 


>  <Version>  (483) 


$$$$
483|Compound_261|Compounds_3D_F|sdf|67|dock9|1
     RDKit          3D

 11 10  0  0  0  0  0  0  0  0999 V2000
   -8.1983  -16.3999    5.5929 O   0  0  0  0  0  0  0  0  0  0  0  0
   -7.7585  -17.1122    6.9650 P   0  0  0  0  0  0  0  0  0  0  0  0
   -7.9927  -18.5876    6.9974 O   0  0  0  0  0  0  0  0  0  0  0  0
   -6.2210  -16.6700    7.0784 O   0  0  0  0  0  0  0  0  0  0  0  0
   -8.6505  -16.1827    8.2095 C   0  0  0  0  0  0  0  0  0  0  0  0
   -7.7446  -15.5470    9.2544 C   0  0  0  0  0  0  0  0  0  0  0  0
   -8.4341  -14.6001   10.1080 N   0  0  0  0  0  0  0  0  0  0  0  0
   -8.3699  -14.6045   11.4815 C   0  0  0  0  0  0  0  0  0  0  0  0
   -7.6644  -15.3879   12.1179 O   0  0  0  0  0  0  0  0  0  0  0  0
   -9.1965  -13.5015   12.1411 C   0  0  0  0  0  0  0  0  0  0  0  0
  -10.2670  -14.0817   12.9707 N   0  0  0  0  0  0  0  0  0  0  0  0
  1  2  1  0
  2  3  2  0
  2  4  1  0
  2  5  1  0
  5  6  1  0
  6  7  1  0
  7  8  1  0
  8  9  2  0
  8 10  1  0
 10 11  1  0
M  END
>  <Gold.Gold.Protein.RotatedWaterAtoms>  (484) 


>  <Gold.Id.Protein>  (484) 


>  <Gold.PLP.Chemscore.CHOScore>  (484) 
0.0000

>  <Gold.PLP.Chemscore.Hbond>  (484) 
4.0000

>  <Gold.PLP.Chemscore.Internal.Correction>  (484) 
0.0995

>  <Gold.PLP.Chemscore.Metal>  (484) 
0.0000

>  <Gold.PLP.Fitness>  (484) 
37.0717

>  <Gold.PLP.PLP>  (484) 
-25.4241

>  <Gold.PLP.ligand.clash>  (484) 
0.0000

>  <Gold.PLP.ligand.torsion>  (484) 
0.2259

>  <Gold.PLP.part.buried>  (484) 
-3.7121

>  <Gold.PLP.part.hbond>  (484) 
-8.0000

>  <Gold.PLP.part.metal>  (484) 
0.0000

>  <Gold.PLP.part.nonpolar>  (484) 
-13.5669

>  <Gold.PLP.part.repulsive>  (484) 
0.1965

>  <Gold.Protein.RotatedAtoms>  (484) 


>  <Gold.Protein.RotatedTorsions>  (484) 


>  <Gold.Protein.RotatedWaterAtoms>  (484) 


>  <Gold.Version>  (484) 
5.3.0

>  <PLP.Chemscore.CHOScore>  (484) 


>  <PLP.Chemscore.Hbond>  (484) 


>  <PLP.Chemscore.Internal.Correction>  (484) 


>  <PLP.Chemscore.Metal>  (484) 


>  <PLP.Fitness>  (484) 


>  <PLP.PLP>  (484) 


>  <PLP.ligand.clash>  (484) 


>  <PLP.ligand.torsion>  (484) 


>  <PLP.part.buried>  (484) 


>  <PLP.part.hbond>  (484) 


>  <PLP.part.metal>  (484) 


>  <PLP.part.nonpolar>  (484) 


>  <PLP.part.repulsive>  (484) 


>  <Version>  (484) 


$$$$
484|Compound_262|Compounds_3D_F|sdf|68|dock1|1
     RDKit          3D

 10  9  0  0  0  0  0  0  0  0999 V2000
   -5.2477  -15.8165    9.5835 O   0  0  0  0  0  0  0  0  0  0  0  0
   -4.6708  -16.8209   10.7030 P   0  0  0  0  0  0  0  0  0  0  0  0
   -5.0033  -18.2619   10.4819 O   0  0  0  0  0  0  0  0  0  0  0  0
   -3.0978  -16.4886   10.6342 O   0  0  0  0  0  0  0  0  0  0  0  0
   -5.1700  -16.1307   12.2835 C   0  0  0  0  0  0  0  0  0  0  0  0
   -4.9092  -14.7058   12.3601 N   0  0  0  0  0  0  0  0  0  0  0  0
   -5.9029  -13.7579   12.3813 C   0  0  0  0  0  0  0  0  0  0  0  0
   -7.0971  -14.0620   12.4247 O   0  0  0  0  0  0  0  0  0  0  0  0
   -5.3990  -12.3184   12.4397 C   0  0  0  0  0  0  0  0  0  0  0  0
   -4.2914  -12.1991   13.4028 N   0  0  0  0  0  0  0  0  0  0  0  0
  1  2  1  0
  2  3  2  0
  2  4  1  0
  2  5  1  0
  5  6  1  0
  6  7  1  0
  7  8  2  0
  7  9  1  0
  9 10  1  0
M  END
>  <Gold.Gold.Protein.RotatedWaterAtoms>  (485) 


>  <Gold.Id.Protein>  (485) 


>  <Gold.PLP.Chemscore.CHOScore>  (485) 
0.0000

>  <Gold.PLP.Chemscore.Hbond>  (485) 
4.8950

>  <Gold.PLP.Chemscore.Internal.Correction>  (485) 
0.1107

>  <Gold.PLP.Chemscore.Metal>  (485) 
0.0000

>  <Gold.PLP.Fitness>  (485) 
40.3185

>  <Gold.PLP.PLP>  (485) 
-26.1563

>  <Gold.PLP.ligand.clash>  (485) 
0.0000

>  <Gold.PLP.ligand.torsion>  (485) 
0.3167

>  <Gold.PLP.part.buried>  (485) 
-6.8089

>  <Gold.PLP.part.hbond>  (485) 
-7.0980

>  <Gold.PLP.part.metal>  (485) 
0.0000

>  <Gold.PLP.part.nonpolar>  (485) 
-13.3225

>  <Gold.PLP.part.repulsive>  (485) 
0.2244

>  <Gold.Protein.RotatedAtoms>  (485) 


>  <Gold.Protein.RotatedTorsions>  (485) 


>  <Gold.Protein.RotatedWaterAtoms>  (485) 


>  <Gold.Version>  (485) 
5.3.0

>  <PLP.Chemscore.CHOScore>  (485) 


>  <PLP.Chemscore.Hbond>  (485) 


>  <PLP.Chemscore.Internal.Correction>  (485) 


>  <PLP.Chemscore.Metal>  (485) 


>  <PLP.Fitness>  (485) 


>  <PLP.PLP>  (485) 


>  <PLP.ligand.clash>  (485) 


>  <PLP.ligand.torsion>  (485) 


>  <PLP.part.buried>  (485) 


>  <PLP.part.hbond>  (485) 


>  <PLP.part.metal>  (485) 


>  <PLP.part.nonpolar>  (485) 


>  <PLP.part.repulsive>  (485) 


>  <Version>  (485) 


$$$$
485|Compound_262|Compounds_3D_F|sdf|68|dock2|1
     RDKit          3D

 10  9  0  0  0  0  0  0  0  0999 V2000
   -4.7724  -18.4472   10.3116 O   0  0  0  0  0  0  0  0  0  0  0  0
   -4.0985  -17.0098   10.5843 P   0  0  0  0  0  0  0  0  0  0  0  0
   -2.6037  -17.0024   10.5474 O   0  0  0  0  0  0  0  0  0  0  0  0
   -4.7914  -16.1214    9.4352 O   0  0  0  0  0  0  0  0  0  0  0  0
   -4.8524  -16.3943   12.0931 C   0  0  0  0  0  0  0  0  0  0  0  0
   -4.7493  -14.9515   12.2019 N   0  0  0  0  0  0  0  0  0  0  0  0
   -5.8409  -14.1223   12.2877 C   0  0  0  0  0  0  0  0  0  0  0  0
   -6.9910  -14.5600   12.3664 O   0  0  0  0  0  0  0  0  0  0  0  0
   -5.4989  -12.6371   12.3696 C   0  0  0  0  0  0  0  0  0  0  0  0
   -4.4861  -12.3986   13.4118 N   0  0  0  0  0  0  0  0  0  0  0  0
  1  2  1  0
  2  3  2  0
  2  4  1  0
  2  5  1  0
  5  6  1  0
  6  7  1  0
  7  8  2  0
  7  9  1  0
  9 10  1  0
M  END
>  <Gold.Gold.Protein.RotatedWaterAtoms>  (486) 


>  <Gold.Id.Protein>  (486) 


>  <Gold.PLP.Chemscore.CHOScore>  (486) 
0.0000

>  <Gold.PLP.Chemscore.Hbond>  (486) 
4.8080

>  <Gold.PLP.Chemscore.Internal.Correction>  (486) 
0.1102

>  <Gold.PLP.Chemscore.Metal>  (486) 
0.0000

>  <Gold.PLP.Fitness>  (486) 
39.5147

>  <Gold.PLP.PLP>  (486) 
-25.6385

>  <Gold.PLP.ligand.clash>  (486) 
0.0000

>  <Gold.PLP.ligand.torsion>  (486) 
0.3290

>  <Gold.PLP.part.buried>  (486) 
-6.1463

>  <Gold.PLP.part.hbond>  (486) 
-6.8981

>  <Gold.PLP.part.metal>  (486) 
0.0000

>  <Gold.PLP.part.nonpolar>  (486) 
-13.2539

>  <Gold.PLP.part.repulsive>  (486) 
0.3662

>  <Gold.Protein.RotatedAtoms>  (486) 


>  <Gold.Protein.RotatedTorsions>  (486) 


>  <Gold.Protein.RotatedWaterAtoms>  (486) 


>  <Gold.Version>  (486) 
5.3.0

>  <PLP.Chemscore.CHOScore>  (486) 


>  <PLP.Chemscore.Hbond>  (486) 


>  <PLP.Chemscore.Internal.Correction>  (486) 


>  <PLP.Chemscore.Metal>  (486) 


>  <PLP.Fitness>  (486) 


>  <PLP.PLP>  (486) 


>  <PLP.ligand.clash>  (486) 


>  <PLP.ligand.torsion>  (486) 


>  <PLP.part.buried>  (486) 


>  <PLP.part.hbond>  (486) 


>  <PLP.part.metal>  (486) 


>  <PLP.part.nonpolar>  (486) 


>  <PLP.part.repulsive>  (486) 


>  <Version>  (486) 


$$$$
486|Compound_262|Compounds_3D_F|sdf|68|dock3|1
     RDKit          3D

 10  9  0  0  0  0  0  0  0  0999 V2000
   -5.6980  -15.0875    8.5277 O   0  0  0  0  0  0  0  0  0  0  0  0
   -5.4037  -16.4134    9.3938 P   0  0  0  0  0  0  0  0  0  0  0  0
   -5.9923  -17.6693    8.8350 O   0  0  0  0  0  0  0  0  0  0  0  0
   -3.7951  -16.4017    9.4387 O   0  0  0  0  0  0  0  0  0  0  0  0
   -5.8669  -16.0088   11.0806 C   0  0  0  0  0  0  0  0  0  0  0  0
   -5.5032  -14.6493   11.4320 N   0  0  0  0  0  0  0  0  0  0  0  0
   -6.3498  -13.7878   12.0860 C   0  0  0  0  0  0  0  0  0  0  0  0
   -7.4555  -14.1442   12.4994 O   0  0  0  0  0  0  0  0  0  0  0  0
   -5.7678  -12.3985   12.3322 C   0  0  0  0  0  0  0  0  0  0  0  0
   -4.6140  -12.4776   13.2439 N   0  0  0  0  0  0  0  0  0  0  0  0
  1  2  1  0
  2  3  2  0
  2  4  1  0
  2  5  1  0
  5  6  1  0
  6  7  1  0
  7  8  2  0
  7  9  1  0
  9 10  1  0
M  END
>  <Gold.Gold.Protein.RotatedWaterAtoms>  (487) 


>  <Gold.Id.Protein>  (487) 


>  <Gold.PLP.Chemscore.CHOScore>  (487) 
0.0000

>  <Gold.PLP.Chemscore.Hbond>  (487) 
4.9760

>  <Gold.PLP.Chemscore.Internal.Correction>  (487) 
0.1090

>  <Gold.PLP.Chemscore.Metal>  (487) 
0.0000

>  <Gold.PLP.Fitness>  (487) 
37.0833

>  <Gold.PLP.PLP>  (487) 
-22.8146

>  <Gold.PLP.ligand.clash>  (487) 
0.0000

>  <Gold.PLP.ligand.torsion>  (487) 
0.3842

>  <Gold.PLP.part.buried>  (487) 
-5.9046

>  <Gold.PLP.part.hbond>  (487) 
-6.8672

>  <Gold.PLP.part.metal>  (487) 
0.0000

>  <Gold.PLP.part.nonpolar>  (487) 
-10.4755

>  <Gold.PLP.part.repulsive>  (487) 
0.2279

>  <Gold.Protein.RotatedAtoms>  (487) 


>  <Gold.Protein.RotatedTorsions>  (487) 


>  <Gold.Protein.RotatedWaterAtoms>  (487) 


>  <Gold.Version>  (487) 
5.3.0

>  <PLP.Chemscore.CHOScore>  (487) 


>  <PLP.Chemscore.Hbond>  (487) 


>  <PLP.Chemscore.Internal.Correction>  (487) 


>  <PLP.Chemscore.Metal>  (487) 


>  <PLP.Fitness>  (487) 


>  <PLP.PLP>  (487) 


>  <PLP.ligand.clash>  (487) 


>  <PLP.ligand.torsion>  (487) 


>  <PLP.part.buried>  (487) 


>  <PLP.part.hbond>  (487) 


>  <PLP.part.metal>  (487) 


>  <PLP.part.nonpolar>  (487) 


>  <PLP.part.repulsive>  (487) 


>  <Version>  (487) 


$$$$
487|Compound_262|Compounds_3D_F|sdf|68|dock4|1
     RDKit          3D

 10  9  0  0  0  0  0  0  0  0999 V2000
   -5.5370  -15.2341    9.5483 O   0  0  0  0  0  0  0  0  0  0  0  0
   -5.0674  -16.5842   10.2910 P   0  0  0  0  0  0  0  0  0  0  0  0
   -5.9232  -17.7793   10.0166 O   0  0  0  0  0  0  0  0  0  0  0  0
   -3.5550  -16.7193    9.7580 O   0  0  0  0  0  0  0  0  0  0  0  0
   -4.8586  -16.1446   12.0192 C   0  0  0  0  0  0  0  0  0  0  0  0
   -4.7935  -14.7082   12.2098 N   0  0  0  0  0  0  0  0  0  0  0  0
   -5.9063  -13.9063   12.2813 C   0  0  0  0  0  0  0  0  0  0  0  0
   -7.0489  -14.3698   12.2753 O   0  0  0  0  0  0  0  0  0  0  0  0
   -5.6022  -12.4213   12.4601 C   0  0  0  0  0  0  0  0  0  0  0  0
   -4.5934  -12.2256   13.5150 N   0  0  0  0  0  0  0  0  0  0  0  0
  1  2  1  0
  2  3  2  0
  2  4  1  0
  2  5  1  0
  5  6  1  0
  6  7  1  0
  7  8  2  0
  7  9  1  0
  9 10  1  0
M  END
>  <Gold.Gold.Protein.RotatedWaterAtoms>  (488) 


>  <Gold.Id.Protein>  (488) 


>  <Gold.PLP.Chemscore.CHOScore>  (488) 
0.0000

>  <Gold.PLP.Chemscore.Hbond>  (488) 
4.7840

>  <Gold.PLP.Chemscore.Internal.Correction>  (488) 
0.1090

>  <Gold.PLP.Chemscore.Metal>  (488) 
0.0000

>  <Gold.PLP.Fitness>  (488) 
38.5430

>  <Gold.PLP.PLP>  (488) 
-25.5517

>  <Gold.PLP.ligand.clash>  (488) 
0.0000

>  <Gold.PLP.ligand.torsion>  (488) 
0.7349

>  <Gold.PLP.part.buried>  (488) 
-6.0447

>  <Gold.PLP.part.hbond>  (488) 
-8.0000

>  <Gold.PLP.part.metal>  (488) 
0.0000

>  <Gold.PLP.part.nonpolar>  (488) 
-12.1418

>  <Gold.PLP.part.repulsive>  (488) 
0.2294

>  <Gold.Protein.RotatedAtoms>  (488) 


>  <Gold.Protein.RotatedTorsions>  (488) 


>  <Gold.Protein.RotatedWaterAtoms>  (488) 


>  <Gold.Version>  (488) 
5.3.0

>  <PLP.Chemscore.CHOScore>  (488) 


>  <PLP.Chemscore.Hbond>  (488) 


>  <PLP.Chemscore.Internal.Correction>  (488) 


>  <PLP.Chemscore.Metal>  (488) 


>  <PLP.Fitness>  (488) 


>  <PLP.PLP>  (488) 


>  <PLP.ligand.clash>  (488) 


>  <PLP.ligand.torsion>  (488) 


>  <PLP.part.buried>  (488) 


>  <PLP.part.hbond>  (488) 


>  <PLP.part.metal>  (488) 


>  <PLP.part.nonpolar>  (488) 


>  <PLP.part.repulsive>  (488) 


>  <Version>  (488) 


$$$$
488|Compound_263|Compounds_3D_F|sdf|69|dock1|1
     RDKit          3D

 11 10  0  0  0  0  0  0  0  0999 V2000
   -5.8261  -15.0134    9.1069 O   0  0  0  0  0  0  0  0  0  0  0  0
   -5.4301  -16.4685    9.6718 P   0  0  0  0  0  0  0  0  0  0  0  0
   -6.3922  -17.5449    9.2793 O   0  0  0  0  0  0  0  0  0  0  0  0
   -3.9634  -16.6565    9.0475 O   0  0  0  0  0  0  0  0  0  0  0  0
   -5.1925  -16.2503   11.4482 C   0  0  0  0  0  0  0  0  0  0  0  0
   -5.0796  -14.8200   11.7090 N   0  0  0  0  0  0  0  0  0  0  0  0
   -6.1064  -14.0444   12.2027 C   0  0  0  0  0  0  0  0  0  0  0  0
   -7.2193  -14.4692   12.4939 O   0  0  0  0  0  0  0  0  0  0  0  0
   -5.7033  -12.5842   12.4032 C   0  0  0  0  0  0  0  0  0  0  0  0
   -4.5894  -12.4833   13.3668 N   0  0  0  0  0  0  0  0  0  0  0  0
   -3.9898  -16.9971   12.0130 C   0  0  0  0  0  0  0  0  0  0  0  0
  1  2  1  0
  2  3  2  0
  2  4  1  0
  2  5  1  0
  5  6  1  0
  5 11  1  0
  6  7  1  0
  7  8  2  0
  7  9  1  0
  9 10  1  0
M  END
>  <Gold.Gold.Protein.RotatedWaterAtoms>  (489) 


>  <Gold.Id.Protein>  (489) 


>  <Gold.PLP.Chemscore.CHOScore>  (489) 
0.0000

>  <Gold.PLP.Chemscore.Hbond>  (489) 
3.5356

>  <Gold.PLP.Chemscore.Internal.Correction>  (489) 
0.2060

>  <Gold.PLP.Chemscore.Metal>  (489) 
0.0000

>  <Gold.PLP.Fitness>  (489) 
35.7812

>  <Gold.PLP.PLP>  (489) 
-27.2248

>  <Gold.PLP.ligand.clash>  (489) 
0.0000

>  <Gold.PLP.ligand.torsion>  (489) 
1.1282

>  <Gold.PLP.part.buried>  (489) 
-6.2999

>  <Gold.PLP.part.hbond>  (489) 
-7.0000

>  <Gold.PLP.part.metal>  (489) 
0.0000

>  <Gold.PLP.part.nonpolar>  (489) 
-13.9709

>  <Gold.PLP.part.repulsive>  (489) 
0.2090

>  <Gold.Protein.RotatedAtoms>  (489) 


>  <Gold.Protein.RotatedTorsions>  (489) 


>  <Gold.Protein.RotatedWaterAtoms>  (489) 


>  <Gold.Version>  (489) 
5.3.0

>  <PLP.Chemscore.CHOScore>  (489) 


>  <PLP.Chemscore.Hbond>  (489) 


>  <PLP.Chemscore.Internal.Correction>  (489) 


>  <PLP.Chemscore.Metal>  (489) 


>  <PLP.Fitness>  (489) 


>  <PLP.PLP>  (489) 


>  <PLP.ligand.clash>  (489) 


>  <PLP.ligand.torsion>  (489) 


>  <PLP.part.buried>  (489) 


>  <PLP.part.hbond>  (489) 


>  <PLP.part.metal>  (489) 


>  <PLP.part.nonpolar>  (489) 


>  <PLP.part.repulsive>  (489) 


>  <Version>  (489) 


$$$$
489|Compound_263|Compounds_3D_F|sdf|69|dock2|1
     RDKit          3D

 11 10  0  0  0  0  0  0  0  0999 V2000
   -8.3455  -14.4643   10.1074 O   0  0  0  0  0  0  0  0  0  0  0  0
   -7.2498  -15.6414   10.1912 P   0  0  0  0  0  0  0  0  0  0  0  0
   -7.7734  -16.9776    9.7684 O   0  0  0  0  0  0  0  0  0  0  0  0
   -6.1005  -15.0663    9.2295 O   0  0  0  0  0  0  0  0  0  0  0  0
   -6.5832  -15.5643   11.8674 C   0  0  0  0  0  0  0  0  0  0  0  0
   -5.9229  -14.2737   12.0240 N   0  0  0  0  0  0  0  0  0  0  0  0
   -6.5846  -13.1018   12.3217 C   0  0  0  0  0  0  0  0  0  0  0  0
   -7.7939  -13.0146   12.5052 O   0  0  0  0  0  0  0  0  0  0  0  0
   -5.6429  -11.9055   12.4525 C   0  0  0  0  0  0  0  0  0  0  0  0
   -4.5628  -12.2010   13.4146 N   0  0  0  0  0  0  0  0  0  0  0  0
   -5.6297  -16.7023   12.2124 C   0  0  0  0  0  0  0  0  0  0  0  0
  1  2  1  0
  2  3  2  0
  2  4  1  0
  2  5  1  0
  5  6  1  0
  5 11  1  0
  6  7  1  0
  7  8  2  0
  7  9  1  0
  9 10  1  0
M  END
>  <Gold.Gold.Protein.RotatedWaterAtoms>  (490) 


>  <Gold.Id.Protein>  (490) 


>  <Gold.PLP.Chemscore.CHOScore>  (490) 
0.0000

>  <Gold.PLP.Chemscore.Hbond>  (490) 
3.9280

>  <Gold.PLP.Chemscore.Internal.Correction>  (490) 
0.2036

>  <Gold.PLP.Chemscore.Metal>  (490) 
0.0000

>  <Gold.PLP.Fitness>  (490) 
37.3641

>  <Gold.PLP.PLP>  (490) 
-26.8835

>  <Gold.PLP.ligand.clash>  (490) 
0.0000

>  <Gold.PLP.ligand.torsion>  (490) 
0.7535

>  <Gold.PLP.part.buried>  (490) 
-5.9206

>  <Gold.PLP.part.hbond>  (490) 
-5.5837

>  <Gold.PLP.part.metal>  (490) 
0.0000

>  <Gold.PLP.part.nonpolar>  (490) 
-15.1705

>  <Gold.PLP.part.repulsive>  (490) 
0.2095

>  <Gold.Protein.RotatedAtoms>  (490) 


>  <Gold.Protein.RotatedTorsions>  (490) 


>  <Gold.Protein.RotatedWaterAtoms>  (490) 


>  <Gold.Version>  (490) 
5.3.0

>  <PLP.Chemscore.CHOScore>  (490) 


>  <PLP.Chemscore.Hbond>  (490) 


>  <PLP.Chemscore.Internal.Correction>  (490) 


>  <PLP.Chemscore.Metal>  (490) 


>  <PLP.Fitness>  (490) 


>  <PLP.PLP>  (490) 


>  <PLP.ligand.clash>  (490) 


>  <PLP.ligand.torsion>  (490) 


>  <PLP.part.buried>  (490) 


>  <PLP.part.hbond>  (490) 


>  <PLP.part.metal>  (490) 


>  <PLP.part.nonpolar>  (490) 


>  <PLP.part.repulsive>  (490) 


>  <Version>  (490) 


$$$$
490|Compound_263|Compounds_3D_F|sdf|69|dock3|1
     RDKit          3D

 11 10  0  0  0  0  0  0  0  0999 V2000
   -5.1446  -15.3479    9.1328 O   0  0  0  0  0  0  0  0  0  0  0  0
   -6.1664  -15.9746   10.2082 P   0  0  0  0  0  0  0  0  0  0  0  0
   -7.5329  -15.3675   10.1597 O   0  0  0  0  0  0  0  0  0  0  0  0
   -6.1361  -17.5264    9.7993 O   0  0  0  0  0  0  0  0  0  0  0  0
   -5.3232  -15.8613   11.8008 C   0  0  0  0  0  0  0  0  0  0  0  0
   -5.0609  -14.4515   12.0653 N   0  0  0  0  0  0  0  0  0  0  0  0
   -6.0466  -13.4980   12.2029 C   0  0  0  0  0  0  0  0  0  0  0  0
   -7.2492  -13.7280   12.1366 O   0  0  0  0  0  0  0  0  0  0  0  0
   -5.4889  -12.1069   12.5007 C   0  0  0  0  0  0  0  0  0  0  0  0
   -4.3159  -12.2005   13.3923 N   0  0  0  0  0  0  0  0  0  0  0  0
   -4.0360  -16.6734   11.8841 C   0  0  0  0  0  0  0  0  0  0  0  0
  1  2  1  0
  2  3  2  0
  2  4  1  0
  2  5  1  0
  5  6  1  0
  5 11  1  0
  6  7  1  0
  7  8  2  0
  7  9  1  0
  9 10  1  0
M  END
>  <Gold.Gold.Protein.RotatedWaterAtoms>  (491) 


>  <Gold.Id.Protein>  (491) 


>  <Gold.PLP.Chemscore.CHOScore>  (491) 
0.0000

>  <Gold.PLP.Chemscore.Hbond>  (491) 
3.9723

>  <Gold.PLP.Chemscore.Internal.Correction>  (491) 
0.2036

>  <Gold.PLP.Chemscore.Metal>  (491) 
0.0000

>  <Gold.PLP.Fitness>  (491) 
37.6669

>  <Gold.PLP.PLP>  (491) 
-26.6780

>  <Gold.PLP.ligand.clash>  (491) 
0.0000

>  <Gold.PLP.ligand.torsion>  (491) 
0.5657

>  <Gold.PLP.part.buried>  (491) 
-6.7036

>  <Gold.PLP.part.hbond>  (491) 
-6.1238

>  <Gold.PLP.part.metal>  (491) 
0.0000

>  <Gold.PLP.part.nonpolar>  (491) 
-14.8745

>  <Gold.PLP.part.repulsive>  (491) 
0.2737

>  <Gold.Protein.RotatedAtoms>  (491) 


>  <Gold.Protein.RotatedTorsions>  (491) 


>  <Gold.Protein.RotatedWaterAtoms>  (491) 


>  <Gold.Version>  (491) 
5.3.0

>  <PLP.Chemscore.CHOScore>  (491) 


>  <PLP.Chemscore.Hbond>  (491) 


>  <PLP.Chemscore.Internal.Correction>  (491) 


>  <PLP.Chemscore.Metal>  (491) 


>  <PLP.Fitness>  (491) 


>  <PLP.PLP>  (491) 


>  <PLP.ligand.clash>  (491) 


>  <PLP.ligand.torsion>  (491) 


>  <PLP.part.buried>  (491) 


>  <PLP.part.hbond>  (491) 


>  <PLP.part.metal>  (491) 


>  <PLP.part.nonpolar>  (491) 


>  <PLP.part.repulsive>  (491) 


>  <Version>  (491) 


$$$$
491|Compound_263|Compounds_3D_F|sdf|69|dock4|1
     RDKit          3D

 11 10  0  0  0  0  0  0  0  0999 V2000
   -5.9311  -15.0390    8.8307 O   0  0  0  0  0  0  0  0  0  0  0  0
   -5.4910  -16.4027    9.5655 P   0  0  0  0  0  0  0  0  0  0  0  0
   -6.1915  -17.6169    9.0429 O   0  0  0  0  0  0  0  0  0  0  0  0
   -3.9088  -16.4055    9.2955 O   0  0  0  0  0  0  0  0  0  0  0  0
   -5.6956  -16.0889   11.3318 C   0  0  0  0  0  0  0  0  0  0  0  0
   -5.3675  -14.6891   11.5753 N   0  0  0  0  0  0  0  0  0  0  0  0
   -6.2402  -13.7801   12.1338 C   0  0  0  0  0  0  0  0  0  0  0  0
   -7.3784  -14.0472   12.5035 O   0  0  0  0  0  0  0  0  0  0  0  0
   -5.6254  -12.3907   12.2970 C   0  0  0  0  0  0  0  0  0  0  0  0
   -4.5766  -12.4086   13.3358 N   0  0  0  0  0  0  0  0  0  0  0  0
   -4.8648  -17.0003   12.2275 C   0  0  0  0  0  0  0  0  0  0  0  0
  1  2  1  0
  2  3  2  0
  2  4  1  0
  2  5  1  0
  5  6  1  0
  5 11  1  0
  6  7  1  0
  7  8  2  0
  7  9  1  0
  9 10  1  0
M  END
>  <Gold.Gold.Protein.RotatedWaterAtoms>  (492) 


>  <Gold.Id.Protein>  (492) 


>  <Gold.PLP.Chemscore.CHOScore>  (492) 
0.0000

>  <Gold.PLP.Chemscore.Hbond>  (492) 
3.8736

>  <Gold.PLP.Chemscore.Internal.Correction>  (492) 
0.2036

>  <Gold.PLP.Chemscore.Metal>  (492) 
0.0000

>  <Gold.PLP.Fitness>  (492) 
37.0974

>  <Gold.PLP.PLP>  (492) 
-26.8806

>  <Gold.PLP.ligand.clash>  (492) 
0.0000

>  <Gold.PLP.ligand.torsion>  (492) 
0.8038

>  <Gold.PLP.part.buried>  (492) 
-6.0321

>  <Gold.PLP.part.hbond>  (492) 
-6.8388

>  <Gold.PLP.part.metal>  (492) 
0.0000

>  <Gold.PLP.part.nonpolar>  (492) 
-14.0212

>  <Gold.PLP.part.repulsive>  (492) 
0.2166

>  <Gold.Protein.RotatedAtoms>  (492) 


>  <Gold.Protein.RotatedTorsions>  (492) 


>  <Gold.Protein.RotatedWaterAtoms>  (492) 


>  <Gold.Version>  (492) 
5.3.0

>  <PLP.Chemscore.CHOScore>  (492) 


>  <PLP.Chemscore.Hbond>  (492) 


>  <PLP.Chemscore.Internal.Correction>  (492) 


>  <PLP.Chemscore.Metal>  (492) 


>  <PLP.Fitness>  (492) 


>  <PLP.PLP>  (492) 


>  <PLP.ligand.clash>  (492) 


>  <PLP.ligand.torsion>  (492) 


>  <PLP.part.buried>  (492) 


>  <PLP.part.hbond>  (492) 


>  <PLP.part.metal>  (492) 


>  <PLP.part.nonpolar>  (492) 


>  <PLP.part.repulsive>  (492) 


>  <Version>  (492) 


$$$$
492|Compound_263|Compounds_3D_F|sdf|69|dock5|1
     RDKit          3D

 11 10  0  0  0  0  0  0  0  0999 V2000
   -5.9936  -15.0933    9.3657 O   0  0  0  0  0  0  0  0  0  0  0  0
   -5.3817  -16.4313   10.0205 P   0  0  0  0  0  0  0  0  0  0  0  0
   -6.1006  -17.6789    9.6145 O   0  0  0  0  0  0  0  0  0  0  0  0
   -3.8637  -16.3652    9.5031 O   0  0  0  0  0  0  0  0  0  0  0  0
   -5.3180  -16.1157   11.7971 C   0  0  0  0  0  0  0  0  0  0  0  0
   -5.0095  -14.7031   11.9866 N   0  0  0  0  0  0  0  0  0  0  0  0
   -5.9639  -13.7216   12.1459 C   0  0  0  0  0  0  0  0  0  0  0  0
   -7.1730  -13.9253   12.1641 O   0  0  0  0  0  0  0  0  0  0  0  0
   -5.3589  -12.3335   12.3509 C   0  0  0  0  0  0  0  0  0  0  0  0
   -4.5419  -12.3024   13.5802 N   0  0  0  0  0  0  0  0  0  0  0  0
   -4.3225  -16.9900   12.5506 C   0  0  0  0  0  0  0  0  0  0  0  0
  1  2  1  0
  2  3  2  0
  2  4  1  0
  2  5  1  0
  5  6  1  0
  5 11  1  0
  6  7  1  0
  7  8  2  0
  7  9  1  0
  9 10  1  0
M  END
>  <Gold.Gold.Protein.RotatedWaterAtoms>  (493) 


>  <Gold.Id.Protein>  (493) 


>  <Gold.PLP.Chemscore.CHOScore>  (493) 
0.0000

>  <Gold.PLP.Chemscore.Hbond>  (493) 
4.4960

>  <Gold.PLP.Chemscore.Internal.Correction>  (493) 
0.2036

>  <Gold.PLP.Chemscore.Metal>  (493) 
0.0000

>  <Gold.PLP.Fitness>  (493) 
38.6094

>  <Gold.PLP.PLP>  (493) 
-26.9367

>  <Gold.PLP.ligand.clash>  (493) 
0.0000

>  <Gold.PLP.ligand.torsion>  (493) 
1.0094

>  <Gold.PLP.part.buried>  (493) 
-6.6356

>  <Gold.PLP.part.hbond>  (493) 
-7.1308

>  <Gold.PLP.part.metal>  (493) 
0.0000

>  <Gold.PLP.part.nonpolar>  (493) 
-14.6900

>  <Gold.PLP.part.repulsive>  (493) 
0.2066

>  <Gold.Protein.RotatedAtoms>  (493) 


>  <Gold.Protein.RotatedTorsions>  (493) 


>  <Gold.Protein.RotatedWaterAtoms>  (493) 


>  <Gold.Version>  (493) 
5.3.0

>  <PLP.Chemscore.CHOScore>  (493) 


>  <PLP.Chemscore.Hbond>  (493) 


>  <PLP.Chemscore.Internal.Correction>  (493) 


>  <PLP.Chemscore.Metal>  (493) 


>  <PLP.Fitness>  (493) 


>  <PLP.PLP>  (493) 


>  <PLP.ligand.clash>  (493) 


>  <PLP.ligand.torsion>  (493) 


>  <PLP.part.buried>  (493) 


>  <PLP.part.hbond>  (493) 


>  <PLP.part.metal>  (493) 


>  <PLP.part.nonpolar>  (493) 


>  <PLP.part.repulsive>  (493) 


>  <Version>  (493) 


$$$$
493|Compound_263|Compounds_3D_F|sdf|69|dock6|1
     RDKit          3D

 11 10  0  0  0  0  0  0  0  0999 V2000
   -9.4310  -15.4363   12.4766 O   0  0  0  0  0  0  0  0  0  0  0  0
   -8.5827  -14.7095   11.3167 P   0  0  0  0  0  0  0  0  0  0  0  0
   -8.0018  -15.6583   10.3163 O   0  0  0  0  0  0  0  0  0  0  0  0
   -9.6839  -13.7178   10.7000 O   0  0  0  0  0  0  0  0  0  0  0  0
   -7.3898  -13.6600   12.1743 C   0  0  0  0  0  0  0  0  0  0  0  0
   -7.6873  -12.2749   11.8284 N   0  0  0  0  0  0  0  0  0  0  0  0
   -6.8905  -11.2061   12.1784 C   0  0  0  0  0  0  0  0  0  0  0  0
   -5.8382  -11.2992   12.8011 O   0  0  0  0  0  0  0  0  0  0  0  0
   -7.4284   -9.8716   11.6640 C   0  0  0  0  0  0  0  0  0  0  0  0
   -8.5245  -10.0933   10.7002 N   0  0  0  0  0  0  0  0  0  0  0  0
   -5.9340  -13.9908   11.8673 C   0  0  0  0  0  0  0  0  0  0  0  0
  1  2  1  0
  2  3  2  0
  2  4  1  0
  2  5  1  0
  5  6  1  0
  5 11  1  0
  6  7  1  0
  7  8  2  0
  7  9  1  0
  9 10  1  0
M  END
>  <Gold.Gold.Protein.RotatedWaterAtoms>  (494) 


>  <Gold.Id.Protein>  (494) 


>  <Gold.PLP.Chemscore.CHOScore>  (494) 
0.0000

>  <Gold.PLP.Chemscore.Hbond>  (494) 
2.0000

>  <Gold.PLP.Chemscore.Internal.Correction>  (494) 
0.2036

>  <Gold.PLP.Chemscore.Metal>  (494) 
0.0000

>  <Gold.PLP.Fitness>  (494) 
38.1901

>  <Gold.PLP.PLP>  (494) 
-32.7528

>  <Gold.PLP.ligand.clash>  (494) 
0.0000

>  <Gold.PLP.ligand.torsion>  (494) 
0.3832

>  <Gold.PLP.part.buried>  (494) 
-6.3857

>  <Gold.PLP.part.hbond>  (494) 
-8.0000

>  <Gold.PLP.part.metal>  (494) 
0.0000

>  <Gold.PLP.part.nonpolar>  (494) 
-19.6962

>  <Gold.PLP.part.repulsive>  (494) 
0.5726

>  <Gold.Protein.RotatedAtoms>  (494) 


>  <Gold.Protein.RotatedTorsions>  (494) 


>  <Gold.Protein.RotatedWaterAtoms>  (494) 


>  <Gold.Version>  (494) 
5.3.0

>  <PLP.Chemscore.CHOScore>  (494) 


>  <PLP.Chemscore.Hbond>  (494) 


>  <PLP.Chemscore.Internal.Correction>  (494) 


>  <PLP.Chemscore.Metal>  (494) 


>  <PLP.Fitness>  (494) 


>  <PLP.PLP>  (494) 


>  <PLP.ligand.clash>  (494) 


>  <PLP.ligand.torsion>  (494) 


>  <PLP.part.buried>  (494) 


>  <PLP.part.hbond>  (494) 


>  <PLP.part.metal>  (494) 


>  <PLP.part.nonpolar>  (494) 


>  <PLP.part.repulsive>  (494) 


>  <Version>  (494) 


$$$$
494|Compound_263|Compounds_3D_F|sdf|69|dock7|1
     RDKit          3D

 11 10  0  0  0  0  0  0  0  0999 V2000
   -5.1860  -15.9145    9.4675 O   0  0  0  0  0  0  0  0  0  0  0  0
   -4.5378  -16.8650   10.5943 P   0  0  0  0  0  0  0  0  0  0  0  0
   -4.7442  -18.3243   10.3372 O   0  0  0  0  0  0  0  0  0  0  0  0
   -2.9990  -16.4120   10.5365 O   0  0  0  0  0  0  0  0  0  0  0  0
   -5.1788  -16.2564   12.1687 C   0  0  0  0  0  0  0  0  0  0  0  0
   -4.9587  -14.8155   12.2108 N   0  0  0  0  0  0  0  0  0  0  0  0
   -5.9727  -13.8819   12.2160 C   0  0  0  0  0  0  0  0  0  0  0  0
   -7.1680  -14.1551   12.2039 O   0  0  0  0  0  0  0  0  0  0  0  0
   -5.4563  -12.4456   12.2893 C   0  0  0  0  0  0  0  0  0  0  0  0
   -4.5005  -12.2964   13.4044 N   0  0  0  0  0  0  0  0  0  0  0  0
   -4.5693  -16.9301   13.3926 C   0  0  0  0  0  0  0  0  0  0  0  0
  1  2  1  0
  2  3  2  0
  2  4  1  0
  2  5  1  0
  5  6  1  0
  5 11  1  0
  6  7  1  0
  7  8  2  0
  7  9  1  0
  9 10  1  0
M  END
>  <Gold.Gold.Protein.RotatedWaterAtoms>  (495) 


>  <Gold.Id.Protein>  (495) 


>  <Gold.PLP.Chemscore.CHOScore>  (495) 
0.0000

>  <Gold.PLP.Chemscore.Hbond>  (495) 
4.5388

>  <Gold.PLP.Chemscore.Internal.Correction>  (495) 
0.2036

>  <Gold.PLP.Chemscore.Metal>  (495) 
0.0000

>  <Gold.PLP.Fitness>  (495) 
40.9454

>  <Gold.PLP.PLP>  (495) 
-27.4733

>  <Gold.PLP.ligand.clash>  (495) 
0.0000

>  <Gold.PLP.ligand.torsion>  (495) 
0.1738

>  <Gold.PLP.part.buried>  (495) 
-6.9534

>  <Gold.PLP.part.hbond>  (495) 
-7.1764

>  <Gold.PLP.part.metal>  (495) 
0.0000

>  <Gold.PLP.part.nonpolar>  (495) 
-13.9180

>  <Gold.PLP.part.repulsive>  (495) 
0.2068

>  <Gold.Protein.RotatedAtoms>  (495) 


>  <Gold.Protein.RotatedTorsions>  (495) 


>  <Gold.Protein.RotatedWaterAtoms>  (495) 


>  <Gold.Version>  (495) 
5.3.0

>  <PLP.Chemscore.CHOScore>  (495) 


>  <PLP.Chemscore.Hbond>  (495) 


>  <PLP.Chemscore.Internal.Correction>  (495) 


>  <PLP.Chemscore.Metal>  (495) 


>  <PLP.Fitness>  (495) 


>  <PLP.PLP>  (495) 


>  <PLP.ligand.clash>  (495) 


>  <PLP.ligand.torsion>  (495) 


>  <PLP.part.buried>  (495) 


>  <PLP.part.hbond>  (495) 


>  <PLP.part.metal>  (495) 


>  <PLP.part.nonpolar>  (495) 


>  <PLP.part.repulsive>  (495) 


>  <Version>  (495) 


$$$$
495|Compound_263|Compounds_3D_F|sdf|69|dock8|1
     RDKit          3D

 11 10  0  0  0  0  0  0  0  0999 V2000
   -5.4747  -14.9028    8.9752 O   0  0  0  0  0  0  0  0  0  0  0  0
   -6.3956  -16.0212    9.6782 P   0  0  0  0  0  0  0  0  0  0  0  0
   -7.7919  -16.0694    9.1431 O   0  0  0  0  0  0  0  0  0  0  0  0
   -5.5474  -17.3521    9.3858 O   0  0  0  0  0  0  0  0  0  0  0  0
   -6.2548  -15.7192   11.4527 C   0  0  0  0  0  0  0  0  0  0  0  0
   -5.6994  -14.3830   11.6333 N   0  0  0  0  0  0  0  0  0  0  0  0
   -6.3880  -13.3340   12.2036 C   0  0  0  0  0  0  0  0  0  0  0  0
   -7.5324  -13.4089   12.6376 O   0  0  0  0  0  0  0  0  0  0  0  0
   -5.5558  -12.0554   12.2903 C   0  0  0  0  0  0  0  0  0  0  0  0
   -4.4480  -12.2240   13.2516 N   0  0  0  0  0  0  0  0  0  0  0  0
   -5.4200  -16.7544   12.1973 C   0  0  0  0  0  0  0  0  0  0  0  0
  1  2  1  0
  2  3  2  0
  2  4  1  0
  2  5  1  0
  5  6  1  0
  5 11  1  0
  6  7  1  0
  7  8  2  0
  7  9  1  0
  9 10  1  0
M  END
>  <Gold.Gold.Protein.RotatedWaterAtoms>  (496) 


>  <Gold.Id.Protein>  (496) 


>  <Gold.PLP.Chemscore.CHOScore>  (496) 
0.0000

>  <Gold.PLP.Chemscore.Hbond>  (496) 
3.5180

>  <Gold.PLP.Chemscore.Internal.Correction>  (496) 
0.2036

>  <Gold.PLP.Chemscore.Metal>  (496) 
0.0000

>  <Gold.PLP.Fitness>  (496) 
36.2241

>  <Gold.PLP.PLP>  (496) 
-26.1346

>  <Gold.PLP.ligand.clash>  (496) 
0.0000

>  <Gold.PLP.ligand.torsion>  (496) 
0.3341

>  <Gold.PLP.part.buried>  (496) 
-6.5359

>  <Gold.PLP.part.hbond>  (496) 
-5.5324

>  <Gold.PLP.part.metal>  (496) 
0.0000

>  <Gold.PLP.part.nonpolar>  (496) 
-14.4327

>  <Gold.PLP.part.repulsive>  (496) 
0.2768

>  <Gold.Protein.RotatedAtoms>  (496) 


>  <Gold.Protein.RotatedTorsions>  (496) 


>  <Gold.Protein.RotatedWaterAtoms>  (496) 


>  <Gold.Version>  (496) 
5.3.0

>  <PLP.Chemscore.CHOScore>  (496) 


>  <PLP.Chemscore.Hbond>  (496) 


>  <PLP.Chemscore.Internal.Correction>  (496) 


>  <PLP.Chemscore.Metal>  (496) 


>  <PLP.Fitness>  (496) 


>  <PLP.PLP>  (496) 


>  <PLP.ligand.clash>  (496) 


>  <PLP.ligand.torsion>  (496) 


>  <PLP.part.buried>  (496) 


>  <PLP.part.hbond>  (496) 


>  <PLP.part.metal>  (496) 


>  <PLP.part.nonpolar>  (496) 


>  <PLP.part.repulsive>  (496) 


>  <Version>  (496) 


$$$$
496|Compound_263|Compounds_3D_F|sdf|69|dock9|1
     RDKit          3D

 11 10  0  0  0  0  0  0  0  0999 V2000
   -4.6955  -15.9699    8.9767 O   0  0  0  0  0  0  0  0  0  0  0  0
   -6.0997  -16.1188    9.7508 P   0  0  0  0  0  0  0  0  0  0  0  0
   -7.1806  -15.2410    9.2038 O   0  0  0  0  0  0  0  0  0  0  0  0
   -6.3902  -17.6870    9.5702 O   0  0  0  0  0  0  0  0  0  0  0  0
   -5.7167  -15.8800   11.4990 C   0  0  0  0  0  0  0  0  0  0  0  0
   -5.3447  -14.4825   11.6855 N   0  0  0  0  0  0  0  0  0  0  0  0
   -6.1470  -13.5487   12.3054 C   0  0  0  0  0  0  0  0  0  0  0  0
   -7.2503  -13.7891   12.7834 O   0  0  0  0  0  0  0  0  0  0  0  0
   -5.4972  -12.1680   12.3857 C   0  0  0  0  0  0  0  0  0  0  0  0
   -4.3479  -12.1909   13.3120 N   0  0  0  0  0  0  0  0  0  0  0  0
   -4.6262  -16.8030   12.0303 C   0  0  0  0  0  0  0  0  0  0  0  0
  1  2  1  0
  2  3  2  0
  2  4  1  0
  2  5  1  0
  5  6  1  0
  5 11  1  0
  6  7  1  0
  7  8  2  0
  7  9  1  0
  9 10  1  0
M  END
>  <Gold.Gold.Protein.RotatedWaterAtoms>  (497) 


>  <Gold.Id.Protein>  (497) 


>  <Gold.PLP.Chemscore.CHOScore>  (497) 
0.0000

>  <Gold.PLP.Chemscore.Hbond>  (497) 
3.9357

>  <Gold.PLP.Chemscore.Internal.Correction>  (497) 
0.2036

>  <Gold.PLP.Chemscore.Metal>  (497) 
0.0000

>  <Gold.PLP.Fitness>  (497) 
36.3228

>  <Gold.PLP.PLP>  (497) 
-24.8770

>  <Gold.PLP.ligand.clash>  (497) 
0.0000

>  <Gold.PLP.ligand.torsion>  (497) 
0.2825

>  <Gold.PLP.part.buried>  (497) 
-6.0385

>  <Gold.PLP.part.hbond>  (497) 
-4.9486

>  <Gold.PLP.part.metal>  (497) 
0.0000

>  <Gold.PLP.part.nonpolar>  (497) 
-14.6185

>  <Gold.PLP.part.repulsive>  (497) 
0.3584

>  <Gold.Protein.RotatedAtoms>  (497) 


>  <Gold.Protein.RotatedTorsions>  (497) 


>  <Gold.Protein.RotatedWaterAtoms>  (497) 


>  <Gold.Version>  (497) 
5.3.0

>  <PLP.Chemscore.CHOScore>  (497) 


>  <PLP.Chemscore.Hbond>  (497) 


>  <PLP.Chemscore.Internal.Correction>  (497) 


>  <PLP.Chemscore.Metal>  (497) 


>  <PLP.Fitness>  (497) 


>  <PLP.PLP>  (497) 


>  <PLP.ligand.clash>  (497) 


>  <PLP.ligand.torsion>  (497) 


>  <PLP.part.buried>  (497) 


>  <PLP.part.hbond>  (497) 


>  <PLP.part.metal>  (497) 


>  <PLP.part.nonpolar>  (497) 


>  <PLP.part.repulsive>  (497) 


>  <Version>  (497) 


$$$$
497|Compound_264|Compounds_3D_F|sdf|70|dock1|1
     RDKit          3D

  9  8  0  0  0  0  0  0  0  0999 V2000
   -4.5939  -12.6456   13.3557 N   0  0  0  0  0  0  0  0  0  0  0  0
   -5.7942  -12.7356   12.4994 C   0  0  0  0  0  0  0  0  0  0  0  0
   -5.9213  -14.1390   11.9117 C   0  0  0  0  0  0  0  0  0  0  0  0
   -6.9800  -14.6041   11.5142 O   0  0  0  0  0  0  0  0  0  0  0  0
   -4.6985  -14.8465   11.8940 N   0  0  0  0  0  0  0  0  0  0  0  0
   -4.4636  -16.4275   11.4426 S   0  0  0  0  0  0  0  0  0  0  0  0
   -5.4784  -16.7273   10.4523 O   0  0  0  0  0  0  0  0  0  0  0  0
   -3.0633  -16.6528   11.1616 O   0  0  0  0  0  0  0  0  0  0  0  0
   -4.8995  -17.2984   12.9309 C   0  0  0  0  0  0  0  0  0  0  0  0
  1  2  1  0
  2  3  1  0
  3  4  2  0
  3  5  1  0
  5  6  1  0
  6  7  2  0
  6  8  2  0
  6  9  1  0
M  END
>  <Gold.Gold.Protein.RotatedWaterAtoms>  (498) 


>  <Gold.Id.Protein>  (498) 


>  <Gold.PLP.Chemscore.CHOScore>  (498) 
0.0000

>  <Gold.PLP.Chemscore.Hbond>  (498) 
3.4264

>  <Gold.PLP.Chemscore.Internal.Correction>  (498) 
0.9924

>  <Gold.PLP.Chemscore.Metal>  (498) 
0.0000

>  <Gold.PLP.Fitness>  (498) 
33.7524

>  <Gold.PLP.PLP>  (498) 
-24.0986

>  <Gold.PLP.ligand.clash>  (498) 
0.0000

>  <Gold.PLP.ligand.torsion>  (498) 
0.8089

>  <Gold.PLP.part.buried>  (498) 
-5.2187

>  <Gold.PLP.part.hbond>  (498) 
-6.0000

>  <Gold.PLP.part.metal>  (498) 
0.0000

>  <Gold.PLP.part.nonpolar>  (498) 
-14.2759

>  <Gold.PLP.part.repulsive>  (498) 
1.3176

>  <Gold.Protein.RotatedAtoms>  (498) 


>  <Gold.Protein.RotatedTorsions>  (498) 


>  <Gold.Protein.RotatedWaterAtoms>  (498) 


>  <Gold.Version>  (498) 
5.3.0

>  <PLP.Chemscore.CHOScore>  (498) 


>  <PLP.Chemscore.Hbond>  (498) 


>  <PLP.Chemscore.Internal.Correction>  (498) 


>  <PLP.Chemscore.Metal>  (498) 


>  <PLP.Fitness>  (498) 


>  <PLP.PLP>  (498) 


>  <PLP.ligand.clash>  (498) 


>  <PLP.ligand.torsion>  (498) 


>  <PLP.part.buried>  (498) 


>  <PLP.part.hbond>  (498) 


>  <PLP.part.metal>  (498) 


>  <PLP.part.nonpolar>  (498) 


>  <PLP.part.repulsive>  (498) 


>  <Version>  (498) 


$$$$
498|Compound_264|Compounds_3D_F|sdf|70|dock2|1
     RDKit          3D

  9  8  0  0  0  0  0  0  0  0999 V2000
   -4.5975  -12.4325   13.3705 N   0  0  0  0  0  0  0  0  0  0  0  0
   -5.6971  -12.3003   12.3930 C   0  0  0  0  0  0  0  0  0  0  0  0
   -6.3521  -13.6572   12.1461 C   0  0  0  0  0  0  0  0  0  0  0  0
   -7.4920  -13.9236   12.4993 O   0  0  0  0  0  0  0  0  0  0  0  0
   -5.5009  -14.5733   11.4885 N   0  0  0  0  0  0  0  0  0  0  0  0
   -5.8148  -16.1703   11.1572 S   0  0  0  0  0  0  0  0  0  0  0  0
   -7.2379  -16.3592   11.3553 O   0  0  0  0  0  0  0  0  0  0  0  0
   -5.1830  -16.5444    9.9116 O   0  0  0  0  0  0  0  0  0  0  0  0
   -4.9782  -16.9898   12.4958 C   0  0  0  0  0  0  0  0  0  0  0  0
  1  2  1  0
  2  3  1  0
  3  4  2  0
  3  5  1  0
  5  6  1  0
  6  7  2  0
  6  8  2  0
  6  9  1  0
M  END
>  <Gold.Gold.Protein.RotatedWaterAtoms>  (499) 


>  <Gold.Id.Protein>  (499) 


>  <Gold.PLP.Chemscore.CHOScore>  (499) 
0.0000

>  <Gold.PLP.Chemscore.Hbond>  (499) 
2.9920

>  <Gold.PLP.Chemscore.Internal.Correction>  (499) 
0.9924

>  <Gold.PLP.Chemscore.Metal>  (499) 
0.0000

>  <Gold.PLP.Fitness>  (499) 
32.0003

>  <Gold.PLP.PLP>  (499) 
-23.1512

>  <Gold.PLP.ligand.clash>  (499) 
0.0000

>  <Gold.PLP.ligand.torsion>  (499) 
0.5597

>  <Gold.PLP.part.buried>  (499) 
-5.9594

>  <Gold.PLP.part.hbond>  (499) 
-4.0000

>  <Gold.PLP.part.metal>  (499) 
0.0000

>  <Gold.PLP.part.nonpolar>  (499) 
-13.3206

>  <Gold.PLP.part.repulsive>  (499) 
0.3150

>  <Gold.Protein.RotatedAtoms>  (499) 


>  <Gold.Protein.RotatedTorsions>  (499) 


>  <Gold.Protein.RotatedWaterAtoms>  (499) 


>  <Gold.Version>  (499) 
5.3.0

>  <PLP.Chemscore.CHOScore>  (499) 


>  <PLP.Chemscore.Hbond>  (499) 


>  <PLP.Chemscore.Internal.Correction>  (499) 


>  <PLP.Chemscore.Metal>  (499) 


>  <PLP.Fitness>  (499) 


>  <PLP.PLP>  (499) 


>  <PLP.ligand.clash>  (499) 


>  <PLP.ligand.torsion>  (499) 


>  <PLP.part.buried>  (499) 


>  <PLP.part.hbond>  (499) 


>  <PLP.part.metal>  (499) 


>  <PLP.part.nonpolar>  (499) 


>  <PLP.part.repulsive>  (499) 


>  <Version>  (499) 


$$$$
499|Compound_264|Compounds_3D_F|sdf|70|dock3|1
     RDKit          3D

  9  8  0  0  0  0  0  0  0  0999 V2000
   -4.6034  -12.4206   13.3992 N   0  0  0  0  0  0  0  0  0  0  0  0
   -5.6673  -12.2746   12.3849 C   0  0  0  0  0  0  0  0  0  0  0  0
   -6.3498  -13.6176   12.1365 C   0  0  0  0  0  0  0  0  0  0  0  0
   -7.4961  -13.8599   12.4862 O   0  0  0  0  0  0  0  0  0  0  0  0
   -5.5160  -14.5516   11.4817 N   0  0  0  0  0  0  0  0  0  0  0  0
   -5.8623  -16.1417   11.1499 S   0  0  0  0  0  0  0  0  0  0  0  0
   -7.2961  -16.2902   11.3001 O   0  0  0  0  0  0  0  0  0  0  0  0
   -5.1988  -16.5420    9.9292 O   0  0  0  0  0  0  0  0  0  0  0  0
   -5.0951  -16.9741   12.5217 C   0  0  0  0  0  0  0  0  0  0  0  0
  1  2  1  0
  2  3  1  0
  3  4  2  0
  3  5  1  0
  5  6  1  0
  6  7  2  0
  6  8  2  0
  6  9  1  0
M  END
>  <Gold.Gold.Protein.RotatedWaterAtoms>  (500) 


>  <Gold.Id.Protein>  (500) 


>  <Gold.PLP.Chemscore.CHOScore>  (500) 
0.0000

>  <Gold.PLP.Chemscore.Hbond>  (500) 
3.0000

>  <Gold.PLP.Chemscore.Internal.Correction>  (500) 
0.9924

>  <Gold.PLP.Chemscore.Metal>  (500) 
0.0000

>  <Gold.PLP.Fitness>  (500) 
31.9692

>  <Gold.PLP.PLP>  (500) 
-23.1472

>  <Gold.PLP.ligand.clash>  (500) 
0.0000

>  <Gold.PLP.ligand.torsion>  (500) 
0.5852

>  <Gold.PLP.part.buried>  (500) 
-5.9423

>  <Gold.PLP.part.hbond>  (500) 
-4.0000

>  <Gold.PLP.part.metal>  (500) 
0.0000

>  <Gold.PLP.part.nonpolar>  (500) 
-13.3776

>  <Gold.PLP.part.repulsive>  (500) 
0.3129

>  <Gold.Protein.RotatedAtoms>  (500) 


>  <Gold.Protein.RotatedTorsions>  (500) 


>  <Gold.Protein.RotatedWaterAtoms>  (500) 


>  <Gold.Version>  (500) 
5.3.0

>  <PLP.Chemscore.CHOScore>  (500) 


>  <PLP.Chemscore.Hbond>  (500) 


>  <PLP.Chemscore.Internal.Correction>  (500) 


>  <PLP.Chemscore.Metal>  (500) 


>  <PLP.Fitness>  (500) 


>  <PLP.PLP>  (500) 


>  <PLP.ligand.clash>  (500) 


>  <PLP.ligand.torsion>  (500) 


>  <PLP.part.buried>  (500) 


>  <PLP.part.hbond>  (500) 


>  <PLP.part.metal>  (500) 


>  <PLP.part.nonpolar>  (500) 


>  <PLP.part.repulsive>  (500) 


>  <Version>  (500) 


$$$$
